5iqb_KAN_vina_out
     RDKit          3D

 73 75  0  0  0  0  0  0  0  0999 V2000
   38.4430    8.9090   55.7460 N   0  0  0  0  0  4  0  0  0  0  0  0
   39.4770    8.1800   56.4880 C   0  0  0  0  0  0  0  0  0  0  0  0
   39.3510    6.6470   56.3490 C   0  0  1  0  0  0  0  0  0  0  0  0
   37.9820    6.2740   56.4580 O   0  0  0  0  0  0  0  0  0  0  0  0
   37.8170    4.8630   56.5210 C   0  0  2  0  0  0  0  0  0  0  0  0
   38.4150    4.3400   57.7060 O   0  0  0  0  0  0  0  0  0  0  0  0
   37.4730    4.1120   58.7530 C   0  0  1  0  0  0  0  0  0  0  0  0
   37.5740    2.6310   59.1820 C   0  0  2  0  0  0  0  0  0  0  0  0
   37.2260    1.8220   58.0890 O   0  0  0  0  0  0  0  0  0  0  0  0
   36.6360    2.3030   60.3640 C   0  0  1  0  0  0  0  0  0  0  0  0
   36.8780    0.9590   60.7700 O   0  0  0  0  0  0  0  0  0  0  0  0
   35.7540    0.1180   60.5420 C   0  0  1  0  0  0  0  0  0  0  0  0
   35.9890   -0.7660   59.4540 O   0  0  0  0  0  0  0  0  0  0  0  0
   37.0580   -1.6640   59.7240 C   0  0  2  0  0  0  0  0  0  0  0  0
   37.3630   -2.4590   58.4430 C   0  0  0  0  0  0  0  0  0  0  0  0
   38.7420   -2.6810   58.2970 O   0  0  0  0  0  0  0  0  0  0  0  0
   36.7170   -2.5950   60.9090 C   0  0  1  0  0  0  0  0  0  0  0  0
   37.8030   -3.4490   61.1750 O   0  0  0  0  0  0  0  0  0  0  0  0
   36.4320   -1.7420   62.1600 C   0  0  2  0  0  0  0  0  0  0  0  0
   35.9720   -2.5880   63.2710 N   0  0  0  0  0  4  0  0  0  0  0  0
   35.3760   -0.6650   61.8230 C   0  0  1  0  0  0  0  0  0  0  0  0
   35.1740    0.2060   62.9100 O   0  0  0  0  0  0  0  0  0  0  0  0
   36.9210    3.2490   61.5590 C   0  0  2  0  0  0  0  0  0  0  0  0
   35.9830    3.0040   62.6620 N   0  0  0  0  0  4  0  0  0  0  0  0
   36.8380    4.7240   61.1270 C   0  0  0  0  0  0  0  0  0  0  0  0
   37.7940    5.0320   59.9580 C   0  0  2  0  0  0  0  0  0  0  0  0
   37.6770    6.4490   59.5900 N   0  0  0  0  0  4  0  0  0  0  0  0
   38.3880    4.1720   55.2570 C   0  0  2  0  0  0  0  0  0  0  0  0
   38.3070    2.7770   55.3750 O   0  0  0  0  0  0  0  0  0  0  0  0
   39.8490    4.5790   55.0160 C   0  0  1  0  0  0  0  0  0  0  0  0
   40.3260    4.0480   53.8030 O   0  0  0  0  0  0  0  0  0  0  0  0
   39.9660    6.1140   55.0340 C   0  0  2  0  0  0  0  0  0  0  0  0
   41.3090    6.5120   54.8910 O   0  0  0  0  0  0  0  0  0  0  0  0
   38.3830    9.8990   56.0780 H   0  0  0  0  0  0  0  0  0  0  0  0
   38.6370    8.8830   54.7200 H   0  0  0  0  0  0  0  0  0  0  0  0
   37.5190    8.4480   55.9210 H   0  0  0  0  0  0  0  0  0  0  0  0
   40.4629    8.4866   56.1085 H   0  0  0  0  0  0  0  0  0  0  0  0
   39.3528    8.4254   57.5531 H   0  0  0  0  0  0  0  0  0  0  0  0
   39.9272    6.1865   57.1651 H   0  0  0  0  0  0  0  0  0  0  0  0
   36.7387    4.6485   56.5561 H   0  0  0  0  0  0  0  0  0  0  0  0
   36.4547    4.3358   58.4022 H   0  0  0  0  0  0  0  0  0  0  0  0
   38.6071    2.4406   59.5084 H   0  0  0  0  0  0  0  0  0  0  0  0
   37.1230    0.8950   58.4280 H   0  0  0  0  0  0  0  0  0  0  0  0
   35.5905    2.4345   60.0483 H   0  0  0  0  0  0  0  0  0  0  0  0
   34.9017    0.7604   60.2757 H   0  0  0  0  0  0  0  0  0  0  0  0
   37.9543   -1.0992   60.0201 H   0  0  0  0  0  0  0  0  0  0  0  0
   36.8470   -3.4292   58.4919 H   0  0  0  0  0  0  0  0  0  0  0  0
   37.0118   -1.8748   57.5796 H   0  0  0  0  0  0  0  0  0  0  0  0
   39.0910   -1.9470   57.7250 H   0  0  0  0  0  0  0  0  0  0  0  0
   35.8324   -3.1965   60.6526 H   0  0  0  0  0  0  0  0  0  0  0  0
   37.7290   -3.7370   62.1210 H   0  0  0  0  0  0  0  0  0  0  0  0
   37.3622   -1.2464   62.4746 H   0  0  0  0  0  0  0  0  0  0  0  0
   34.9420   -2.7540   63.1930 H   0  0  0  0  0  0  0  0  0  0  0  0
   36.1530   -2.1110   64.1850 H   0  0  0  0  0  0  0  0  0  0  0  0
   36.4700   -3.5100   63.2650 H   0  0  0  0  0  0  0  0  0  0  0  0
   34.4261   -1.1833   61.6256 H   0  0  0  0  0  0  0  0  0  0  0  0
   35.3300   -0.3100   63.7410 H   0  0  0  0  0  0  0  0  0  0  0  0
   37.9423    3.0377   61.9088 H   0  0  0  0  0  0  0  0  0  0  0  0
   35.0000    3.0110   62.3010 H   0  0  0  0  0  0  0  0  0  0  0  0
   36.0600    3.7610   63.3770 H   0  0  0  0  0  0  0  0  0  0  0  0
   36.1740    2.0800   63.1120 H   0  0  0  0  0  0  0  0  0  0  0  0
   35.8075    4.9455   60.8122 H   0  0  0  0  0  0  0  0  0  0  0  0
   37.1323    5.3485   61.9834 H   0  0  0  0  0  0  0  0  0  0  0  0
   38.8315    4.8361   60.2664 H   0  0  0  0  0  0  0  0  0  0  0  0
   36.9060    6.9000   60.1340 H   0  0  0  0  0  0  0  0  0  0  0  0
   37.4810    6.5540   58.5670 H   0  0  0  0  0  0  0  0  0  0  0  0
   38.5570    6.9510   59.8320 H   0  0  0  0  0  0  0  0  0  0  0  0
   37.7819    4.4996   54.3995 H   0  0  0  0  0  0  0  0  0  0  0  0
   37.5050    2.5850   55.9290 H   0  0  0  0  0  0  0  0  0  0  0  0
   40.4731    4.1664   55.8224 H   0  0  0  0  0  0  0  0  0  0  0  0
   40.2630    3.0590   53.8600 H   0  0  0  0  0  0  0  0  0  0  0  0
   39.4125    6.5402   54.1843 H   0  0  0  0  0  0  0  0  0  0  0  0
   41.6700    6.6910   55.7990 H   0  0  0  0  0  0  0  0  0  0  0  0
  1  2  1  0
  2  3  1  0
  3  4  1  0
  4  5  1  0
  5  6  1  0
  6  7  1  0
  7  8  1  0
  8  9  1  0
  8 10  1  0
 10 11  1  0
 11 12  1  0
 12 13  1  0
 13 14  1  0
 14 15  1  0
 15 16  1  0
 14 17  1  0
 17 18  1  0
 17 19  1  0
 19 20  1  0
 19 21  1  0
 21 22  1  0
 10 23  1  0
 23 24  1  0
 23 25  1  0
 25 26  1  0
 26 27  1  0
  5 28  1  0
 28 29  1  0
 28 30  1  0
 30 31  1  0
 30 32  1  0
 32 33  1  0
 32  3  1  0
 26  7  1  0
 21 12  1  0
  1 34  1  0
  1 35  1  0
  1 36  1  0
  2 37  1  0
  2 38  1  0
  3 39  1  1
  5 40  1  1
  7 41  1  6
  8 42  1  1
  9 43  1  0
 10 44  1  6
 12 45  1  6
 14 46  1  1
 15 47  1  0
 15 48  1  0
 16 49  1  0
 17 50  1  6
 18 51  1  0
 19 52  1  1
 20 53  1  0
 20 54  1  0
 20 55  1  0
 21 56  1  6
 22 57  1  0
 23 58  1  1
 24 59  1  0
 24 60  1  0
 24 61  1  0
 25 62  1  0
 25 63  1  0
 26 64  1  1
 27 65  1  0
 27 66  1  0
 27 67  1  0
 28 68  1  6
 29 69  1  0
 30 70  1  1
 31 71  1  0
 32 72  1  6
 33 73  1  0
M  CHG  4   1   1  20   1  24   1  27   1
M  END
>  <meeko>  (1) 
{"is_sidechain": [false], "free_energy": -6.648, "intermolecular_energy": -11.118, "internal_energy": -2.265}

$$$$
5iqb_KAN_vina_out
     RDKit          3D

 73 75  0  0  0  0  0  0  0  0999 V2000
   34.5580    5.2990   65.8110 N   0  0  0  0  0  4  0  0  0  0  0  0
   35.0490    4.4080   64.7550 C   0  0  0  0  0  0  0  0  0  0  0  0
   36.2460    4.9980   63.9760 C   0  0  1  0  0  0  0  0  0  0  0  0
   35.7630    5.7560   62.8740 O   0  0  0  0  0  0  0  0  0  0  0  0
   36.8150    6.1740   62.0130 C   0  0  2  0  0  0  0  0  0  0  0  0
   37.4470    5.0470   61.4090 O   0  0  0  0  0  0  0  0  0  0  0  0
   37.1060    4.8860   60.0330 C   0  0  1  0  0  0  0  0  0  0  0  0
   38.4140    4.8340   59.2110 C   0  0  2  0  0  0  0  0  0  0  0  0
   39.0880    6.0560   59.3610 O   0  0  0  0  0  0  0  0  0  0  0  0
   38.1480    4.5900   57.7100 C   0  0  1  0  0  0  0  0  0  0  0  0
   39.4010    4.4370   57.0510 O   0  0  0  0  0  0  0  0  0  0  0  0
   39.5430    5.3280   55.9510 C   0  0  1  0  0  0  0  0  0  0  0  0
   39.9580    6.6150   56.3850 O   0  0  0  0  0  0  0  0  0  0  0  0
   41.2480    6.5810   56.9850 C   0  0  2  0  0  0  0  0  0  0  0  0
   41.5450    7.9660   57.5830 C   0  0  0  0  0  0  0  0  0  0  0  0
   42.3730    7.8660   58.7130 O   0  0  0  0  0  0  0  0  0  0  0  0
   42.3250    6.1540   55.9630 C   0  0  1  0  0  0  0  0  0  0  0  0
   43.5830    6.0960   56.5900 O   0  0  0  0  0  0  0  0  0  0  0  0
   41.9770    4.7590   55.4090 C   0  0  2  0  0  0  0  0  0  0  0  0
   42.9060    4.3790   54.3360 N   0  0  0  0  0  4  0  0  0  0  0  0
   40.5190    4.7560   54.8940 C   0  0  1  0  0  0  0  0  0  0  0  0
   40.1280    3.4670   54.4850 O   0  0  0  0  0  0  0  0  0  0  0  0
   37.3130    3.2990   57.5100 C   0  0  2  0  0  0  0  0  0  0  0  0
   36.9820    3.0970   56.0940 N   0  0  0  0  0  4  0  0  0  0  0  0
   36.0190    3.3450   58.3430 C   0  0  0  0  0  0  0  0  0  0  0  0
   36.3090    3.5710   59.8390 C   0  0  2  0  0  0  0  0  0  0  0  0
   35.0440    3.6030   60.5840 N   0  0  0  0  0  4  0  0  0  0  0  0
   37.8440    7.0530   62.7670 C   0  0  2  0  0  0  0  0  0  0  0  0
   38.9250    7.3770   61.9330 O   0  0  0  0  0  0  0  0  0  0  0  0
   38.3670    6.3400   64.0230 C   0  0  1  0  0  0  0  0  0  0  0  0
   39.2060    7.1860   64.7700 O   0  0  0  0  0  0  0  0  0  0  0  0
   37.1760    5.8510   64.8690 C   0  0  2  0  0  0  0  0  0  0  0  0
   37.6280    5.1260   65.9880 O   0  0  0  0  0  0  0  0  0  0  0  0
   33.5140    5.3520   65.7890 H   0  0  0  0  0  0  0  0  0  0  0  0
   34.8840    4.9740   66.7490 H   0  0  0  0  0  0  0  0  0  0  0  0
   34.9390    6.2590   65.6410 H   0  0  0  0  0  0  0  0  0  0  0  0
   35.3631    3.4593   65.2147 H   0  0  0  0  0  0  0  0  0  0  0  0
   34.2278    4.2642   64.0374 H   0  0  0  0  0  0  0  0  0  0  0  0
   36.8573    4.1599   63.6102 H   0  0  0  0  0  0  0  0  0  0  0  0
   36.3761    6.7907   61.2149 H   0  0  0  0  0  0  0  0  0  0  0  0
   36.4818    5.7270   59.6968 H   0  0  0  0  0  0  0  0  0  0  0  0
   39.0190    3.9953   59.5860 H   0  0  0  0  0  0  0  0  0  0  0  0
   38.4060    6.7760   59.3210 H   0  0  0  0  0  0  0  0  0  0  0  0
   37.5886    5.4417   57.2956 H   0  0  0  0  0  0  0  0  0  0  0  0
   38.5566    5.4353   55.4762 H   0  0  0  0  0  0  0  0  0  0  0  0
   41.2667    5.8303   57.7888 H   0  0  0  0  0  0  0  0  0  0  0  0
   42.0472    8.5840   56.8241 H   0  0  0  0  0  0  0  0  0  0  0  0
   40.5928    8.4239   57.8891 H   0  0  0  0  0  0  0  0  0  0  0  0
   42.0620    8.5550   59.3580 H   0  0  0  0  0  0  0  0  0  0  0  0
   42.3565    6.8879   55.1443 H   0  0  0  0  0  0  0  0  0  0  0  0
   43.4550    5.6550   57.4700 H   0  0  0  0  0  0  0  0  0  0  0  0
   42.0743    4.0188   56.2169 H   0  0  0  0  0  0  0  0  0  0  0  0
   43.0800    3.3470   54.3600 H   0  0  0  0  0  0  0  0  0  0  0  0
   43.8240    4.8630   54.4670 H   0  0  0  0  0  0  0  0  0  0  0  0
   42.5150    4.6380   53.3990 H   0  0  0  0  0  0  0  0  0  0  0  0
   40.4769    5.4158   54.0148 H   0  0  0  0  0  0  0  0  0  0  0  0
   40.4590    2.8240   55.1620 H   0  0  0  0  0  0  0  0  0  0  0  0
   37.9278    2.4539   57.8533 H   0  0  0  0  0  0  0  0  0  0  0  0
   37.0950    2.0870   55.8420 H   0  0  0  0  0  0  0  0  0  0  0  0
   37.6320    3.6460   55.4890 H   0  0  0  0  0  0  0  0  0  0  0  0
   35.9970    3.3890   55.9000 H   0  0  0  0  0  0  0  0  0  0  0  0
   35.3875    4.1669   57.9747 H   0  0  0  0  0  0  0  0  0  0  0  0
   35.5092    2.3761   58.2362 H   0  0  0  0  0  0  0  0  0  0  0  0
   36.9215    2.7434   60.2263 H   0  0  0  0  0  0  0  0  0  0  0  0
   34.2520    3.8320   59.9400 H   0  0  0  0  0  0  0  0  0  0  0  0
   35.0790    4.3150   61.3500 H   0  0  0  0  0  0  0  0  0  0  0  0
   34.8470    2.6620   60.9870 H   0  0  0  0  0  0  0  0  0  0  0  0
   37.3290    7.9763   63.0707 H   0  0  0  0  0  0  0  0  0  0  0  0
   39.6860    6.8080   62.2210 H   0  0  0  0  0  0  0  0  0  0  0  0
   38.9677    5.4705   63.7178 H   0  0  0  0  0  0  0  0  0  0  0  0
   39.2790    6.8070   65.6860 H   0  0  0  0  0  0  0  0  0  0  0  0
   36.6093    6.7130   65.2509 H   0  0  0  0  0  0  0  0  0  0  0  0
   37.5590    5.7200   66.7830 H   0  0  0  0  0  0  0  0  0  0  0  0
  1  2  1  0
  2  3  1  0
  3  4  1  0
  4  5  1  0
  5  6  1  0
  6  7  1  0
  7  8  1  0
  8  9  1  0
  8 10  1  0
 10 11  1  0
 11 12  1  0
 12 13  1  0
 13 14  1  0
 14 15  1  0
 15 16  1  0
 14 17  1  0
 17 18  1  0
 17 19  1  0
 19 20  1  0
 19 21  1  0
 21 22  1  0
 10 23  1  0
 23 24  1  0
 23 25  1  0
 25 26  1  0
 26 27  1  0
  5 28  1  0
 28 29  1  0
 28 30  1  0
 30 31  1  0
 30 32  1  0
 32 33  1  0
 32  3  1  0
 26  7  1  0
 21 12  1  0
  1 34  1  0
  1 35  1  0
  1 36  1  0
  2 37  1  0
  2 38  1  0
  3 39  1  6
  5 40  1  6
  7 41  1  6
  8 42  1  1
  9 43  1  0
 10 44  1  6
 12 45  1  6
 14 46  1  1
 15 47  1  0
 15 48  1  0
 16 49  1  0
 17 50  1  6
 18 51  1  0
 19 52  1  1
 20 53  1  0
 20 54  1  0
 20 55  1  0
 21 56  1  6
 22 57  1  0
 23 58  1  1
 24 59  1  0
 24 60  1  0
 24 61  1  0
 25 62  1  0
 25 63  1  0
 26 64  1  1
 27 65  1  0
 27 66  1  0
 27 67  1  0
 28 68  1  1
 29 69  1  0
 30 70  1  6
 31 71  1  0
 32 72  1  1
 33 73  1  0
M  CHG  4   1   1  20   1  24   1  27   1
M  END
>  <meeko>  (2) 
{"is_sidechain": [false], "free_energy": -6.632, "intermolecular_energy": -11.132, "internal_energy": -2.223}

$$$$
5iqb_KAN_vina_out
     RDKit          3D

 73 75  0  0  0  0  0  0  0  0999 V2000
   42.4830    8.2860   58.9540 N   0  0  0  0  0  4  0  0  0  0  0  0
   42.1550    8.4220   57.5320 C   0  0  0  0  0  0  0  0  0  0  0  0
   41.7640    7.0820   56.8720 C   0  0  1  0  0  0  0  0  0  0  0  0
   40.7720    7.3170   55.8790 O   0  0  0  0  0  0  0  0  0  0  0  0
   40.2390    6.1040   55.3610 C   0  0  2  0  0  0  0  0  0  0  0  0
   39.5470    5.3850   56.3800 O   0  0  0  0  0  0  0  0  0  0  0  0
   38.1400    5.6190   56.3710 C   0  0  1  0  0  0  0  0  0  0  0  0
   37.4230    4.2600   56.2030 C   0  0  2  0  0  0  0  0  0  0  0  0
   37.7880    3.7100   54.9640 O   0  0  0  0  0  0  0  0  0  0  0  0
   35.8860    4.4030   56.2520 C   0  0  1  0  0  0  0  0  0  0  0  0
   35.3120    3.1010   56.2100 O   0  0  0  0  0  0  0  0  0  0  0  0
   34.6550    2.8430   54.9740 C   0  0  1  0  0  0  0  0  0  0  0  0
   35.3120    1.8110   54.2520 O   0  0  0  0  0  0  0  0  0  0  0  0
   35.2700    0.5690   54.9450 C   0  0  2  0  0  0  0  0  0  0  0  0
   36.1480   -0.4420   54.1900 C   0  0  0  0  0  0  0  0  0  0  0  0
   36.7690   -1.3380   55.0750 O   0  0  0  0  0  0  0  0  0  0  0  0
   33.8170    0.0660   55.0970 C   0  0  1  0  0  0  0  0  0  0  0  0
   33.8010   -1.1430   55.8140 O   0  0  0  0  0  0  0  0  0  0  0  0
   32.9930    1.1160   55.8680 C   0  0  2  0  0  0  0  0  0  0  0  0
   31.5750    0.7330   55.9130 N   0  0  0  0  0  4  0  0  0  0  0  0
   33.1620    2.5000   55.1990 C   0  0  1  0  0  0  0  0  0  0  0  0
   32.5160    3.5060   55.9420 O   0  0  0  0  0  0  0  0  0  0  0  0
   35.4490    5.1040   57.5640 C   0  0  2  0  0  0  0  0  0  0  0  0
   33.9970    5.3210   57.5890 N   0  0  0  0  0  4  0  0  0  0  0  0
   36.1770    6.4490   57.7410 C   0  0  0  0  0  0  0  0  0  0  0  0
   37.7080    6.2800   57.7060 C   0  0  2  0  0  0  0  0  0  0  0  0
   38.3500    7.5890   57.8810 N   0  0  0  0  0  4  0  0  0  0  0  0
   41.3450    5.2330   54.7160 C   0  0  2  0  0  0  0  0  0  0  0  0
   40.8230    4.0000   54.2970 O   0  0  0  0  0  0  0  0  0  0  0  0
   42.5010    4.9890   55.6970 C   0  0  1  0  0  0  0  0  0  0  0  0
   43.5580    4.3020   55.0710 O   0  0  0  0  0  0  0  0  0  0  0  0
   42.9790    6.3350   56.2740 C   0  0  2  0  0  0  0  0  0  0  0  0
   43.9880    6.1330   57.2340 O   0  0  0  0  0  0  0  0  0  0  0  0
   42.3440    7.2980   59.2690 H   0  0  0  0  0  0  0  0  0  0  0  0
   43.4660    8.5880   59.1380 H   0  0  0  0  0  0  0  0  0  0  0  0
   41.8380    8.8990   59.5060 H   0  0  0  0  0  0  0  0  0  0  0  0
   41.3116    9.1211   57.4321 H   0  0  0  0  0  0  0  0  0  0  0  0
   43.0564    8.7901   57.0202 H   0  0  0  0  0  0  0  0  0  0  0  0
   41.3564    6.4262   57.6554 H   0  0  0  0  0  0  0  0  0  0  0  0
   39.5181    6.3595   54.5704 H   0  0  0  0  0  0  0  0  0  0  0  0
   37.8736    6.2926   55.5432 H   0  0  0  0  0  0  0  0  0  0  0  0
   37.7275    3.6091   57.0358 H   0  0  0  0  0  0  0  0  0  0  0  0
   38.0220    4.4650   54.3630 H   0  0  0  0  0  0  0  0  0  0  0  0
   35.5483    5.0074   55.3972 H   0  0  0  0  0  0  0  0  0  0  0  0
   34.7031    3.7605   54.3692 H   0  0  0  0  0  0  0  0  0  0  0  0
   35.6635    0.6968   55.9642 H   0  0  0  0  0  0  0  0  0  0  0  0
   35.5190   -1.0093   53.4882 H   0  0  0  0  0  0  0  0  0  0  0  0
   36.9303    0.1119   53.6503 H   0  0  0  0  0  0  0  0  0  0  0  0
   37.7210   -1.4010   54.7960 H   0  0  0  0  0  0  0  0  0  0  0  0
   33.3850   -0.0947   54.0982 H   0  0  0  0  0  0  0  0  0  0  0  0
   34.7420   -1.3650   56.0420 H   0  0  0  0  0  0  0  0  0  0  0  0
   33.3614    1.1698   56.9031 H   0  0  0  0  0  0  0  0  0  0  0  0
   31.4270   -0.1580   55.3860 H   0  0  0  0  0  0  0  0  0  0  0  0
   30.9870    1.4730   55.4650 H   0  0  0  0  0  0  0  0  0  0  0  0
   31.2590    0.6010   56.9030 H   0  0  0  0  0  0  0  0  0  0  0  0
   32.6818    2.4500   54.2106 H   0  0  0  0  0  0  0  0  0  0  0  0
   31.5590    3.2610   56.0090 H   0  0  0  0  0  0  0  0  0  0  0  0
   35.7222    4.4399   58.3973 H   0  0  0  0  0  0  0  0  0  0  0  0
   33.6420    5.4610   56.6140 H   0  0  0  0  0  0  0  0  0  0  0  0
   33.7700    6.1830   58.1330 H   0  0  0  0  0  0  0  0  0  0  0  0
   33.5080    4.5010   58.0160 H   0  0  0  0  0  0  0  0  0  0  0  0
   35.8750    7.1269   56.9290 H   0  0  0  0  0  0  0  0  0  0  0  0
   35.9008    6.8606   58.7230 H   0  0  0  0  0  0  0  0  0  0  0  0
   38.0260    5.6222   58.5283 H   0  0  0  0  0  0  0  0  0  0  0  0
   39.2810    7.6010   57.4040 H   0  0  0  0  0  0  0  0  0  0  0  0
   38.4820    7.8080   58.8950 H   0  0  0  0  0  0  0  0  0  0  0  0
   37.7690    8.3300   57.4340 H   0  0  0  0  0  0  0  0  0  0  0  0
   41.7297    5.7811   53.8433 H   0  0  0  0  0  0  0  0  0  0  0  0
   41.4060    3.2970   54.6890 H   0  0  0  0  0  0  0  0  0  0  0  0
   42.1422    4.3556   56.5217 H   0  0  0  0  0  0  0  0  0  0  0  0
   43.2520    3.3730   54.8960 H   0  0  0  0  0  0  0  0  0  0  0  0
   43.4157    6.9507   55.4739 H   0  0  0  0  0  0  0  0  0  0  0  0
   43.5500    5.8440   58.0790 H   0  0  0  0  0  0  0  0  0  0  0  0
  1  2  1  0
  2  3  1  0
  3  4  1  0
  4  5  1  0
  5  6  1  0
  6  7  1  0
  7  8  1  0
  8  9  1  0
  8 10  1  0
 10 11  1  0
 11 12  1  0
 12 13  1  0
 13 14  1  0
 14 15  1  0
 15 16  1  0
 14 17  1  0
 17 18  1  0
 17 19  1  0
 19 20  1  0
 19 21  1  0
 21 22  1  0
 10 23  1  0
 23 24  1  0
 23 25  1  0
 25 26  1  0
 26 27  1  0
  5 28  1  0
 28 29  1  0
 28 30  1  0
 30 31  1  0
 30 32  1  0
 32 33  1  0
 32  3  1  0
 26  7  1  0
 21 12  1  0
  1 34  1  0
  1 35  1  0
  1 36  1  0
  2 37  1  0
  2 38  1  0
  3 39  1  1
  5 40  1  6
  7 41  1  6
  8 42  1  1
  9 43  1  0
 10 44  1  6
 12 45  1  6
 14 46  1  1
 15 47  1  0
 15 48  1  0
 16 49  1  0
 17 50  1  6
 18 51  1  0
 19 52  1  1
 20 53  1  0
 20 54  1  0
 20 55  1  0
 21 56  1  6
 22 57  1  0
 23 58  1  1
 24 59  1  0
 24 60  1  0
 24 61  1  0
 25 62  1  0
 25 63  1  0
 26 64  1  1
 27 65  1  0
 27 66  1  0
 27 67  1  0
 28 68  1  6
 29 69  1  0
 30 70  1  1
 31 71  1  0
 32 72  1  6
 33 73  1  0
M  CHG  4   1   1  20   1  24   1  27   1
M  END
>  <meeko>  (3) 
{"is_sidechain": [false], "free_energy": -6.4, "intermolecular_energy": -10.615, "internal_energy": -2.353}

$$$$
5iqb_KAN_vina_out
     RDKit          3D

 73 75  0  0  0  0  0  0  0  0999 V2000
   42.4490    8.0000   58.7710 N   0  0  0  0  0  4  0  0  0  0  0  0
   42.0460    8.2360   57.3820 C   0  0  0  0  0  0  0  0  0  0  0  0
   41.5960    6.9480   56.6580 C   0  0  1  0  0  0  0  0  0  0  0  0
   40.5830    7.2690   55.7120 O   0  0  0  0  0  0  0  0  0  0  0  0
   39.9970    6.1040   55.1420 C   0  0  2  0  0  0  0  0  0  0  0  0
   39.3130    5.3470   56.1390 O   0  0  0  0  0  0  0  0  0  0  0  0
   37.9460    5.7240   56.2860 C   0  0  1  0  0  0  0  0  0  0  0  0
   37.0640    4.5560   55.7910 C   0  0  2  0  0  0  0  0  0  0  0  0
   37.3210    4.3460   54.4270 O   0  0  0  0  0  0  0  0  0  0  0  0
   35.5580    4.8450   55.9760 C   0  0  1  0  0  0  0  0  0  0  0  0
   34.8290    3.6780   55.6090 O   0  0  0  0  0  0  0  0  0  0  0  0
   35.2470    2.5310   56.3390 C   0  0  1  0  0  0  0  0  0  0  0  0
   34.4020    2.3000   57.4580 O   0  0  0  0  0  0  0  0  0  0  0  0
   33.0680    2.0050   57.0610 C   0  0  2  0  0  0  0  0  0  0  0  0
   32.1860    1.9460   58.3200 C   0  0  0  0  0  0  0  0  0  0  0  0
   31.9840    0.6220   58.7400 O   0  0  0  0  0  0  0  0  0  0  0  0
   33.0050    0.6880   56.2560 C   0  0  1  0  0  0  0  0  0  0  0  0
   31.6830    0.4390   55.8480 O   0  0  0  0  0  0  0  0  0  0  0  0
   33.8990    0.8140   55.0060 C   0  0  2  0  0  0  0  0  0  0  0  0
   33.9700   -0.4660   54.2870 N   0  0  0  0  0  4  0  0  0  0  0  0
   35.3110    1.2830   55.4250 C   0  0  1  0  0  0  0  0  0  0  0  0
   36.1220    1.5190   54.2990 O   0  0  0  0  0  0  0  0  0  0  0  0
   35.2510    5.1840   57.4580 C   0  0  2  0  0  0  0  0  0  0  0  0
   33.8370    5.5420   57.6360 N   0  0  0  0  0  4  0  0  0  0  0  0
   36.1420    6.3370   57.9560 C   0  0  0  0  0  0  0  0  0  0  0  0
   37.6400    6.0200   57.7770 C   0  0  2  0  0  0  0  0  0  0  0  0
   38.4410    7.1480   58.2690 N   0  0  0  0  0  4  0  0  0  0  0  0
   41.0570    5.2400   54.4140 C   0  0  2  0  0  0  0  0  0  0  0  0
   40.4860    4.0490   53.9420 O   0  0  0  0  0  0  0  0  0  0  0  0
   42.2330    4.9060   55.3440 C   0  0  1  0  0  0  0  0  0  0  0  0
   43.2490    4.2260   54.6480 O   0  0  0  0  0  0  0  0  0  0  0  0
   42.7690    6.2020   55.9810 C   0  0  2  0  0  0  0  0  0  0  0  0
   43.7990    5.9150   56.8970 O   0  0  0  0  0  0  0  0  0  0  0  0
   43.4640    7.7520   58.8210 H   0  0  0  0  0  0  0  0  0  0  0  0
   42.2540    8.8410   59.3610 H   0  0  0  0  0  0  0  0  0  0  0  0
   41.8960    7.1950   59.1480 H   0  0  0  0  0  0  0  0  0  0  0  0
   41.2108    8.9518   57.3760 H   0  0  0  0  0  0  0  0  0  0  0  0
   42.9239    8.6256   56.8459 H   0  0  0  0  0  0  0  0  0  0  0  0
   41.1926    6.2592   57.4148 H   0  0  0  0  0  0  0  0  0  0  0  0
   39.2611    6.4261   54.3905 H   0  0  0  0  0  0  0  0  0  0  0  0
   37.7377    6.6302   55.6982 H   0  0  0  0  0  0  0  0  0  0  0  0
   37.3121    3.6656   56.3874 H   0  0  0  0  0  0  0  0  0  0  0  0
   38.2430    3.9870   54.3520 H   0  0  0  0  0  0  0  0  0  0  0  0
   35.2700    5.7010   55.3481 H   0  0  0  0  0  0  0  0  0  0  0  0
   36.2614    2.7253   56.7176 H   0  0  0  0  0  0  0  0  0  0  0  0
   32.6937    2.7958   56.3942 H   0  0  0  0  0  0  0  0  0  0  0  0
   32.6775    2.5072   59.1284 H   0  0  0  0  0  0  0  0  0  0  0  0
   31.2074    2.3868   58.0791 H   0  0  0  0  0  0  0  0  0  0  0  0
   31.6510    0.1190   57.9500 H   0  0  0  0  0  0  0  0  0  0  0  0
   33.3548   -0.1400   56.8901 H   0  0  0  0  0  0  0  0  0  0  0  0
   31.7190    0.0920   54.9190 H   0  0  0  0  0  0  0  0  0  0  0  0
   33.4605    1.5591   54.3259 H   0  0  0  0  0  0  0  0  0  0  0  0
   34.8000   -0.4740   53.6510 H   0  0  0  0  0  0  0  0  0  0  0  0
   33.1140   -0.5980   53.7010 H   0  0  0  0  0  0  0  0  0  0  0  0
   34.0470   -1.2650   54.9610 H   0  0  0  0  0  0  0  0  0  0  0  0
   35.7699    0.4706   56.0076 H   0  0  0  0  0  0  0  0  0  0  0  0
   35.9190    2.4310   53.9690 H   0  0  0  0  0  0  0  0  0  0  0  0
   35.4670    4.2840   58.0524 H   0  0  0  0  0  0  0  0  0  0  0  0
   33.5060    6.1010   56.8150 H   0  0  0  0  0  0  0  0  0  0  0  0
   33.7190    6.1330   58.4870 H   0  0  0  0  0  0  0  0  0  0  0  0
   33.2480    4.6820   57.7230 H   0  0  0  0  0  0  0  0  0  0  0  0
   35.8997    7.2462   57.3861 H   0  0  0  0  0  0  0  0  0  0  0  0
   35.9483    6.4803   59.0293 H   0  0  0  0  0  0  0  0  0  0  0  0
   37.9016    5.1249   58.3605 H   0  0  0  0  0  0  0  0  0  0  0  0
   38.6400    7.0300   59.2890 H   0  0  0  0  0  0  0  0  0  0  0  0
   37.9410    8.0550   58.1200 H   0  0  0  0  0  0  0  0  0  0  0  0
   39.3610    7.1680   57.7790 H   0  0  0  0  0  0  0  0  0  0  0  0
   41.4324    5.8265   53.5625 H   0  0  0  0  0  0  0  0  0  0  0  0
   39.7880    3.7880   54.5990 H   0  0  0  0  0  0  0  0  0  0  0  0
   41.8789    4.2371   56.1422 H   0  0  0  0  0  0  0  0  0  0  0  0
   44.0880    4.3150   55.1730 H   0  0  0  0  0  0  0  0  0  0  0  0
   43.2008    6.8499   55.2040 H   0  0  0  0  0  0  0  0  0  0  0  0
   44.1300    4.9980   56.7050 H   0  0  0  0  0  0  0  0  0  0  0  0
  1  2  1  0
  2  3  1  0
  3  4  1  0
  4  5  1  0
  5  6  1  0
  6  7  1  0
  7  8  1  0
  8  9  1  0
  8 10  1  0
 10 11  1  0
 11 12  1  0
 12 13  1  0
 13 14  1  0
 14 15  1  0
 15 16  1  0
 14 17  1  0
 17 18  1  0
 17 19  1  0
 19 20  1  0
 19 21  1  0
 21 22  1  0
 10 23  1  0
 23 24  1  0
 23 25  1  0
 25 26  1  0
 26 27  1  0
  5 28  1  0
 28 29  1  0
 28 30  1  0
 30 31  1  0
 30 32  1  0
 32 33  1  0
 32  3  1  0
 26  7  1  0
 21 12  1  0
  1 34  1  0
  1 35  1  0
  1 36  1  0
  2 37  1  0
  2 38  1  0
  3 39  1  1
  5 40  1  6
  7 41  1  6
  8 42  1  1
  9 43  1  0
 10 44  1  6
 12 45  1  1
 14 46  1  6
 15 47  1  0
 15 48  1  0
 16 49  1  0
 17 50  1  1
 18 51  1  0
 19 52  1  6
 20 53  1  0
 20 54  1  0
 20 55  1  0
 21 56  1  1
 22 57  1  0
 23 58  1  1
 24 59  1  0
 24 60  1  0
 24 61  1  0
 25 62  1  0
 25 63  1  0
 26 64  1  1
 27 65  1  0
 27 66  1  0
 27 67  1  0
 28 68  1  6
 29 69  1  0
 30 70  1  1
 31 71  1  0
 32 72  1  6
 33 73  1  0
M  CHG  4   1   1  20   1  24   1  27   1
M  END
>  <meeko>  (4) 
{"is_sidechain": [false], "free_energy": -6.229, "intermolecular_energy": -10.551, "internal_energy": -2.13}

$$$$
5iqb_KAN_vina_out
     RDKit          3D

 73 75  0  0  0  0  0  0  0  0999 V2000
   43.1200    5.7680   56.2560 N   0  0  0  0  0  4  0  0  0  0  0  0
   41.8070    6.4200   56.2190 C   0  0  0  0  0  0  0  0  0  0  0  0
   40.6560    5.4410   55.8990 C   0  0  1  0  0  0  0  0  0  0  0  0
   39.4220    6.0130   56.3150 O   0  0  0  0  0  0  0  0  0  0  0  0
   38.3450    5.0890   56.2150 C   0  0  2  0  0  0  0  0  0  0  0  0
   38.5400    3.9940   57.1090 O   0  0  0  0  0  0  0  0  0  0  0  0
   37.5460    3.9230   58.1290 C   0  0  1  0  0  0  0  0  0  0  0  0
   37.0110    2.4750   58.1870 C   0  0  2  0  0  0  0  0  0  0  0  0
   36.4060    2.1700   56.9570 O   0  0  0  0  0  0  0  0  0  0  0  0
   35.9740    2.2810   59.3150 C   0  0  1  0  0  0  0  0  0  0  0  0
   35.6260    0.9020   59.3730 O   0  0  0  0  0  0  0  0  0  0  0  0
   36.7700    0.0630   59.4870 C   0  0  1  0  0  0  0  0  0  0  0  0
   37.0220   -0.2760   60.8440 O   0  0  0  0  0  0  0  0  0  0  0  0
   35.9620   -1.0410   61.4040 C   0  0  2  0  0  0  0  0  0  0  0  0
   36.2260   -1.2120   62.9090 C   0  0  0  0  0  0  0  0  0  0  0  0
   37.2450   -2.1490   63.1450 O   0  0  0  0  0  0  0  0  0  0  0  0
   35.8190   -2.4020   60.6880 C   0  0  1  0  0  0  0  0  0  0  0  0
   34.7430   -3.1220   61.2390 O   0  0  0  0  0  0  0  0  0  0  0  0
   35.5460   -2.1630   59.1900 C   0  0  2  0  0  0  0  0  0  0  0  0
   35.5390   -3.4350   58.4540 N   0  0  0  0  0  4  0  0  0  0  0  0
   36.6170   -1.2080   58.6160 C   0  0  1  0  0  0  0  0  0  0  0  0
   36.3350   -0.8750   57.2770 O   0  0  0  0  0  0  0  0  0  0  0  0
   36.5740    2.7070   60.6800 C   0  0  2  0  0  0  0  0  0  0  0  0
   35.5740    2.6070   61.7510 N   0  0  0  0  0  4  0  0  0  0  0  0
   37.1230    4.1440   60.6170 C   0  0  0  0  0  0  0  0  0  0  0  0
   38.1670    4.3090   59.4960 C   0  0  2  0  0  0  0  0  0  0  0  0
   38.6570    5.6930   59.4830 N   0  0  0  0  0  4  0  0  0  0  0  0
   38.1620    4.5940   54.7590 C   0  0  2  0  0  0  0  0  0  0  0  0
   37.1620    3.6110   54.6910 O   0  0  0  0  0  0  0  0  0  0  0  0
   39.4730    4.0250   54.1970 C   0  0  1  0  0  0  0  0  0  0  0  0
   39.3360    3.6900   52.8370 O   0  0  0  0  0  0  0  0  0  0  0  0
   40.6070    5.0460   54.4050 C   0  0  2  0  0  0  0  0  0  0  0  0
   41.8370    4.5180   53.9670 O   0  0  0  0  0  0  0  0  0  0  0  0
   43.0130    4.7370   56.3930 H   0  0  0  0  0  0  0  0  0  0  0  0
   43.6540    5.9630   55.3790 H   0  0  0  0  0  0  0  0  0  0  0  0
   43.6610    6.1520   57.0660 H   0  0  0  0  0  0  0  0  0  0  0  0
   41.6151    6.8778   57.2007 H   0  0  0  0  0  0  0  0  0  0  0  0
   41.8345    7.1698   55.4146 H   0  0  0  0  0  0  0  0  0  0  0  0
   40.8398    4.5101   56.4555 H   0  0  0  0  0  0  0  0  0  0  0  0
   37.4208    5.6103   56.5050 H   0  0  0  0  0  0  0  0  0  0  0  0
   36.7252    4.6206   57.9061 H   0  0  0  0  0  0  0  0  0  0  0  0
   37.8604    1.8070   58.3927 H   0  0  0  0  0  0  0  0  0  0  0  0
   36.7040    2.8550   56.3030 H   0  0  0  0  0  0  0  0  0  0  0  0
   35.0884    2.8996   59.1075 H   0  0  0  0  0  0  0  0  0  0  0  0
   37.6383    0.6255   59.1133 H   0  0  0  0  0  0  0  0  0  0  0  0
   35.0066   -0.5143   61.2632 H   0  0  0  0  0  0  0  0  0  0  0  0
   36.5259   -0.2422   63.3327 H   0  0  0  0  0  0  0  0  0  0  0  0
   35.3030   -1.5756   63.3843 H   0  0  0  0  0  0  0  0  0  0  0  0
   36.9520   -2.7020   63.9170 H   0  0  0  0  0  0  0  0  0  0  0  0
   36.7485   -2.9761   60.8157 H   0  0  0  0  0  0  0  0  0  0  0  0
   34.1710   -2.4730   61.7260 H   0  0  0  0  0  0  0  0  0  0  0  0
   34.5541   -1.7014   59.0757 H   0  0  0  0  0  0  0  0  0  0  0  0
   35.9150   -3.2930   57.4880 H   0  0  0  0  0  0  0  0  0  0  0  0
   34.5600   -3.7950   58.3680 H   0  0  0  0  0  0  0  0  0  0  0  0
   36.1230   -4.1520   58.9470 H   0  0  0  0  0  0  0  0  0  0  0  0
   37.5794   -1.7403   58.6364 H   0  0  0  0  0  0  0  0  0  0  0  0
   35.9490   -1.6770   56.8440 H   0  0  0  0  0  0  0  0  0  0  0  0
   37.4026    2.0190   60.9036 H   0  0  0  0  0  0  0  0  0  0  0  0
   35.9650    2.9980   62.6400 H   0  0  0  0  0  0  0  0  0  0  0  0
   35.3330    1.6070   61.9270 H   0  0  0  0  0  0  0  0  0  0  0  0
   34.7080    3.1350   61.4970 H   0  0  0  0  0  0  0  0  0  0  0  0
   36.2885    4.8361   60.4311 H   0  0  0  0  0  0  0  0  0  0  0  0
   37.6137    4.3649   61.5764 H   0  0  0  0  0  0  0  0  0  0  0  0
   39.0185    3.6381   59.6825 H   0  0  0  0  0  0  0  0  0  0  0  0
   39.3040    5.8540   60.2900 H   0  0  0  0  0  0  0  0  0  0  0  0
   37.8630    6.3720   59.5410 H   0  0  0  0  0  0  0  0  0  0  0  0
   39.2050    5.8660   58.6140 H   0  0  0  0  0  0  0  0  0  0  0  0
   37.8624    5.4611   54.1521 H   0  0  0  0  0  0  0  0  0  0  0  0
   36.8260    3.4850   55.6170 H   0  0  0  0  0  0  0  0  0  0  0  0
   39.7226    3.1003   54.7380 H   0  0  0  0  0  0  0  0  0  0  0  0
   40.2160    3.3600   52.5170 H   0  0  0  0  0  0  0  0  0  0  0  0
   40.4126    5.9476   53.8055 H   0  0  0  0  0  0  0  0  0  0  0  0
   42.5080    4.6810   54.6820 H   0  0  0  0  0  0  0  0  0  0  0  0
  1  2  1  0
  2  3  1  0
  3  4  1  0
  4  5  1  0
  5  6  1  0
  6  7  1  0
  7  8  1  0
  8  9  1  0
  8 10  1  0
 10 11  1  0
 11 12  1  0
 12 13  1  0
 13 14  1  0
 14 15  1  0
 15 16  1  0
 14 17  1  0
 17 18  1  0
 17 19  1  0
 19 20  1  0
 19 21  1  0
 21 22  1  0
 10 23  1  0
 23 24  1  0
 23 25  1  0
 25 26  1  0
 26 27  1  0
  5 28  1  0
 28 29  1  0
 28 30  1  0
 30 31  1  0
 30 32  1  0
 32 33  1  0
 32  3  1  0
 26  7  1  0
 21 12  1  0
  1 34  1  0
  1 35  1  0
  1 36  1  0
  2 37  1  0
  2 38  1  0
  3 39  1  1
  5 40  1  1
  7 41  1  6
  8 42  1  1
  9 43  1  0
 10 44  1  6
 12 45  1  6
 14 46  1  1
 15 47  1  0
 15 48  1  0
 16 49  1  0
 17 50  1  6
 18 51  1  0
 19 52  1  1
 20 53  1  0
 20 54  1  0
 20 55  1  0
 21 56  1  6
 22 57  1  0
 23 58  1  1
 24 59  1  0
 24 60  1  0
 24 61  1  0
 25 62  1  0
 25 63  1  0
 26 64  1  1
 27 65  1  0
 27 66  1  0
 27 67  1  0
 28 68  1  6
 29 69  1  0
 30 70  1  1
 31 71  1  0
 32 72  1  6
 33 73  1  0
M  CHG  4   1   1  20   1  24   1  27   1
M  END
>  <meeko>  (5) 
{"is_sidechain": [false], "free_energy": -6.219, "intermolecular_energy": -10.65, "internal_energy": -2.014}

$$$$
5iqb_KAN_vina_out
     RDKit          3D

 73 75  0  0  0  0  0  0  0  0999 V2000
   36.5800    1.1120   55.0150 N   0  0  0  0  0  4  0  0  0  0  0  0
   35.1370    1.1460   54.7580 C   0  0  0  0  0  0  0  0  0  0  0  0
   34.3270    1.7200   55.9410 C   0  0  1  0  0  0  0  0  0  0  0  0
   34.7180    3.0690   56.1700 O   0  0  0  0  0  0  0  0  0  0  0  0
   34.1430    3.5970   57.3590 C   0  0  2  0  0  0  0  0  0  0  0  0
   34.6250    2.8960   58.5040 O   0  0  0  0  0  0  0  0  0  0  0  0
   35.7430    3.5340   59.1190 C   0  0  1  0  0  0  0  0  0  0  0  0
   36.9220    3.5170   58.1220 C   0  0  2  0  0  0  0  0  0  0  0  0
   37.2670    2.1830   57.8550 O   0  0  0  0  0  0  0  0  0  0  0  0
   38.1630    4.2520   58.6750 C   0  0  1  0  0  0  0  0  0  0  0  0
   39.1540    4.2930   57.6530 O   0  0  0  0  0  0  0  0  0  0  0  0
   38.9290    5.3510   56.7290 C   0  0  1  0  0  0  0  0  0  0  0  0
   40.0360    6.2410   56.6910 O   0  0  0  0  0  0  0  0  0  0  0  0
   41.2150    5.6000   56.2200 C   0  0  2  0  0  0  0  0  0  0  0  0
   42.3960    6.5720   56.3780 C   0  0  0  0  0  0  0  0  0  0  0  0
   42.7620    7.1350   55.1450 O   0  0  0  0  0  0  0  0  0  0  0  0
   41.0480    5.1330   54.7570 C   0  0  1  0  0  0  0  0  0  0  0  0
   42.2140    4.4740   54.3290 O   0  0  0  0  0  0  0  0  0  0  0  0
   39.8590    4.1570   54.6670 C   0  0  2  0  0  0  0  0  0  0  0  0
   39.5860    3.7980   53.2680 N   0  0  0  0  0  4  0  0  0  0  0  0
   38.6120    4.7990   55.3170 C   0  0  1  0  0  0  0  0  0  0  0  0
   37.5360    3.8920   55.3570 O   0  0  0  0  0  0  0  0  0  0  0  0
   37.7960    5.7030   59.0790 C   0  0  2  0  0  0  0  0  0  0  0  0
   38.9460    6.3900   59.6830 N   0  0  0  0  0  4  0  0  0  0  0  0
   36.6090    5.7200   60.0590 C   0  0  0  0  0  0  0  0  0  0  0  0
   35.3780    4.9970   59.4800 C   0  0  2  0  0  0  0  0  0  0  0  0
   34.2790    5.0450   60.4520 N   0  0  0  0  0  4  0  0  0  0  0  0
   32.5950    3.5650   57.2970 C   0  0  2  0  0  0  0  0  0  0  0  0
   32.0420    3.9970   58.5110 O   0  0  0  0  0  0  0  0  0  0  0  0
   32.0820    2.1540   56.9760 C   0  0  1  0  0  0  0  0  0  0  0  0
   30.6860    2.1530   56.8000 O   0  0  0  0  0  0  0  0  0  0  0  0
   32.7990    1.6170   55.7240 C   0  0  2  0  0  0  0  0  0  0  0  0
   32.4020    0.2940   55.4530 O   0  0  0  0  0  0  0  0  0  0  0  0
   36.9360    0.1290   54.9740 H   0  0  0  0  0  0  0  0  0  0  0  0
   37.0930    1.7120   54.3290 H   0  0  0  0  0  0  0  0  0  0  0  0
   36.7560    1.4840   55.9780 H   0  0  0  0  0  0  0  0  0  0  0  0
   34.9534    1.7708   53.8715 H   0  0  0  0  0  0  0  0  0  0  0  0
   34.8054    0.1084   54.6047 H   0  0  0  0  0  0  0  0  0  0  0  0
   34.5519    1.1122   56.8298 H   0  0  0  0  0  0  0  0  0  0  0  0
   34.4492    4.6499   57.4463 H   0  0  0  0  0  0  0  0  0  0  0  0
   36.0223    3.0036   60.0413 H   0  0  0  0  0  0  0  0  0  0  0  0
   36.6010    4.0380   57.2079 H   0  0  0  0  0  0  0  0  0  0  0  0
   36.5860    1.6080   58.2930 H   0  0  0  0  0  0  0  0  0  0  0  0
   38.5376    3.7199   59.5619 H   0  0  0  0  0  0  0  0  0  0  0  0
   38.0521    5.9181   57.0748 H   0  0  0  0  0  0  0  0  0  0  0  0
   41.4109    4.6955   56.8146 H   0  0  0  0  0  0  0  0  0  0  0  0
   42.1067    7.3782   57.0682 H   0  0  0  0  0  0  0  0  0  0  0  0
   43.2563    6.0117   56.7728 H   0  0  0  0  0  0  0  0  0  0  0  0
   43.5290    6.6030   54.8040 H   0  0  0  0  0  0  0  0  0  0  0  0
   40.8664    6.0090   54.1170 H   0  0  0  0  0  0  0  0  0  0  0  0
   42.4710    4.8630   53.4530 H   0  0  0  0  0  0  0  0  0  0  0  0
   40.1123    3.2342   55.2095 H   0  0  0  0  0  0  0  0  0  0  0  0
   39.2700    4.6420   52.7360 H   0  0  0  0  0  0  0  0  0  0  0  0
   38.8230    3.0840   53.2220 H   0  0  0  0  0  0  0  0  0  0  0  0
   40.4450    3.4070   52.8120 H   0  0  0  0  0  0  0  0  0  0  0  0
   38.3129    5.6503   54.6879 H   0  0  0  0  0  0  0  0  0  0  0  0
   36.7190    4.4050   55.5810 H   0  0  0  0  0  0  0  0  0  0  0  0
   37.5066    6.2362   58.1614 H   0  0  0  0  0  0  0  0  0  0  0  0
   38.6420    6.8970   60.5480 H   0  0  0  0  0  0  0  0  0  0  0  0
   39.3310    7.0990   59.0220 H   0  0  0  0  0  0  0  0  0  0  0  0
   39.6940    5.7040   59.9350 H   0  0  0  0  0  0  0  0  0  0  0  0
   36.9099    5.2196   60.9912 H   0  0  0  0  0  0  0  0  0  0  0  0
   36.3336    6.7688   60.2440 H   0  0  0  0  0  0  0  0  0  0  0  0
   35.0511    5.5021   58.5591 H   0  0  0  0  0  0  0  0  0  0  0  0
   33.7630    5.9520   60.3680 H   0  0  0  0  0  0  0  0  0  0  0  0
   34.6390    4.9460   61.4300 H   0  0  0  0  0  0  0  0  0  0  0  0
   33.5950    4.2860   60.2500 H   0  0  0  0  0  0  0  0  0  0  0  0
   32.2826    4.2468   56.4923 H   0  0  0  0  0  0  0  0  0  0  0  0
   32.5780    3.5760   59.2330 H   0  0  0  0  0  0  0  0  0  0  0  0
   32.3058    1.4911   57.8248 H   0  0  0  0  0  0  0  0  0  0  0  0
   30.4560    1.3860   56.2120 H   0  0  0  0  0  0  0  0  0  0  0  0
   32.5224    2.2212   54.8473 H   0  0  0  0  0  0  0  0  0  0  0  0
   31.6720    0.0610   56.0860 H   0  0  0  0  0  0  0  0  0  0  0  0
  1  2  1  0
  2  3  1  0
  3  4  1  0
  4  5  1  0
  5  6  1  0
  6  7  1  0
  7  8  1  0
  8  9  1  0
  8 10  1  0
 10 11  1  0
 11 12  1  0
 12 13  1  0
 13 14  1  0
 14 15  1  0
 15 16  1  0
 14 17  1  0
 17 18  1  0
 17 19  1  0
 19 20  1  0
 19 21  1  0
 21 22  1  0
 10 23  1  0
 23 24  1  0
 23 25  1  0
 25 26  1  0
 26 27  1  0
  5 28  1  0
 28 29  1  0
 28 30  1  0
 30 31  1  0
 30 32  1  0
 32 33  1  0
 32  3  1  0
 26  7  1  0
 21 12  1  0
  1 34  1  0
  1 35  1  0
  1 36  1  0
  2 37  1  0
  2 38  1  0
  3 39  1  1
  5 40  1  1
  7 41  1  1
  8 42  1  6
  9 43  1  0
 10 44  1  1
 12 45  1  1
 14 46  1  1
 15 47  1  0
 15 48  1  0
 16 49  1  0
 17 50  1  6
 18 51  1  0
 19 52  1  1
 20 53  1  0
 20 54  1  0
 20 55  1  0
 21 56  1  6
 22 57  1  0
 23 58  1  6
 24 59  1  0
 24 60  1  0
 24 61  1  0
 25 62  1  0
 25 63  1  0
 26 64  1  6
 27 65  1  0
 27 66  1  0
 27 67  1  0
 28 68  1  6
 29 69  1  0
 30 70  1  1
 31 71  1  0
 32 72  1  6
 33 73  1  0
M  CHG  4   1   1  20   1  24   1  27   1
M  END
>  <meeko>  (6) 
{"is_sidechain": [false], "free_energy": -5.957, "intermolecular_energy": -10.122, "internal_energy": -2.104}

$$$$
5iqb_KAN_vina_out
     RDKit          3D

 73 75  0  0  0  0  0  0  0  0999 V2000
   38.0650    2.3770   54.8320 N   0  0  0  0  0  4  0  0  0  0  0  0
   36.9020    2.8250   55.6040 C   0  0  0  0  0  0  0  0  0  0  0  0
   37.2620    3.8660   56.6870 C   0  0  1  0  0  0  0  0  0  0  0  0
   37.8530    3.2040   57.7990 O   0  0  0  0  0  0  0  0  0  0  0  0
   38.0400    4.0800   58.9040 C   0  0  2  0  0  0  0  0  0  0  0  0
   36.7830    4.5370   59.4000 O   0  0  0  0  0  0  0  0  0  0  0  0
   36.3280    3.7970   60.5320 C   0  0  1  0  0  0  0  0  0  0  0  0
   36.3110    4.7410   61.7550 C   0  0  2  0  0  0  0  0  0  0  0  0
   37.6230    5.1720   62.0070 O   0  0  0  0  0  0  0  0  0  0  0  0
   35.7630    4.0450   63.0190 C   0  0  1  0  0  0  0  0  0  0  0  0
   35.6700    5.0120   64.0600 O   0  0  0  0  0  0  0  0  0  0  0  0
   36.6350    4.7950   65.0830 C   0  0  1  0  0  0  0  0  0  0  0  0
   37.6990    5.7330   64.9900 O   0  0  0  0  0  0  0  0  0  0  0  0
   37.2490    7.0660   65.2000 C   0  0  2  0  0  0  0  0  0  0  0  0
   38.4140    8.0260   64.9070 C   0  0  0  0  0  0  0  0  0  0  0  0
   39.0020    8.4910   66.0940 O   0  0  0  0  0  0  0  0  0  0  0  0
   36.7010    7.2490   66.6320 C   0  0  1  0  0  0  0  0  0  0  0  0
   36.2330    8.5640   66.8010 O   0  0  0  0  0  0  0  0  0  0  0  0
   35.5330    6.2690   66.8590 C   0  0  2  0  0  0  0  0  0  0  0  0
   35.0750    6.3210   68.2550 N   0  0  0  0  0  4  0  0  0  0  0  0
   35.9790    4.8370   66.4850 C   0  0  1  0  0  0  0  0  0  0  0  0
   34.9040    3.9320   66.5700 O   0  0  0  0  0  0  0  0  0  0  0  0
   34.3510    3.4620   62.7470 C   0  0  2  0  0  0  0  0  0  0  0  0
   33.8500    2.7260   63.9150 N   0  0  0  0  0  4  0  0  0  0  0  0
   34.3650    2.5350   61.5180 C   0  0  0  0  0  0  0  0  0  0  0  0
   34.9000    3.2550   60.2650 C   0  0  2  0  0  0  0  0  0  0  0  0
   34.8880    2.3290   59.1250 N   0  0  0  0  0  4  0  0  0  0  0  0
   38.9580    5.2700   58.5290 C   0  0  2  0  0  0  0  0  0  0  0  0
   39.0550    6.1760   59.5960 O   0  0  0  0  0  0  0  0  0  0  0  0
   38.4340    6.0030   57.2850 C   0  0  1  0  0  0  0  0  0  0  0  0
   39.3320    7.0060   56.8750 O   0  0  0  0  0  0  0  0  0  0  0  0
   38.1850    4.9860   56.1550 C   0  0  2  0  0  0  0  0  0  0  0  0
   37.6310    5.6220   55.0280 O   0  0  0  0  0  0  0  0  0  0  0  0
   38.7630    1.9120   55.4580 H   0  0  0  0  0  0  0  0  0  0  0  0
   37.7730    1.7260   54.0690 H   0  0  0  0  0  0  0  0  0  0  0  0
   38.5210    3.2140   54.3990 H   0  0  0  0  0  0  0  0  0  0  0  0
   36.1746    3.2754   54.9127 H   0  0  0  0  0  0  0  0  0  0  0  0
   36.4888    1.9446   56.1179 H   0  0  0  0  0  0  0  0  0  0  0  0
   36.3315    4.3610   57.0017 H   0  0  0  0  0  0  0  0  0  0  0  0
   38.5410    3.5161   59.7046 H   0  0  0  0  0  0  0  0  0  0  0  0
   36.9975    2.9452   60.7220 H   0  0  0  0  0  0  0  0  0  0  0  0
   35.6485    5.5879   61.5229 H   0  0  0  0  0  0  0  0  0  0  0  0
   37.6370    5.5560   62.9220 H   0  0  0  0  0  0  0  0  0  0  0  0
   36.4376    3.2246   63.3052 H   0  0  0  0  0  0  0  0  0  0  0  0
   37.0579    3.7900   64.9381 H   0  0  0  0  0  0  0  0  0  0  0  0
   36.4162    7.2910   64.5176 H   0  0  0  0  0  0  0  0  0  0  0  0
   39.1742    7.4966   64.3139 H   0  0  0  0  0  0  0  0  0  0  0  0
   38.0206    8.8906   64.3523 H   0  0  0  0  0  0  0  0  0  0  0  0
   39.0390    7.7170   66.7170 H   0  0  0  0  0  0  0  0  0  0  0  0
   37.5064    7.0508   67.3545 H   0  0  0  0  0  0  0  0  0  0  0  0
   35.9030    8.6450   67.7340 H   0  0  0  0  0  0  0  0  0  0  0  0
   34.6899    6.5619   66.2160 H   0  0  0  0  0  0  0  0  0  0  0  0
   34.7610    5.3720   68.5640 H   0  0  0  0  0  0  0  0  0  0  0  0
   34.2620    6.9740   68.3430 H   0  0  0  0  0  0  0  0  0  0  0  0
   35.8450    6.6490   68.8850 H   0  0  0  0  0  0  0  0  0  0  0  0
   36.7404    4.5264   67.2156 H   0  0  0  0  0  0  0  0  0  0  0  0
   35.1870    3.0890   66.1340 H   0  0  0  0  0  0  0  0  0  0  0  0
   33.6783    4.3089   62.5465 H   0  0  0  0  0  0  0  0  0  0  0  0
   34.4100    1.8520   64.0510 H   0  0  0  0  0  0  0  0  0  0  0  0
   32.8570    2.4420   63.7640 H   0  0  0  0  0  0  0  0  0  0  0  0
   33.9170    3.3120   64.7780 H   0  0  0  0  0  0  0  0  0  0  0  0
   35.0079    1.6686   61.7327 H   0  0  0  0  0  0  0  0  0  0  0  0
   33.3309    2.2192   61.3158 H   0  0  0  0  0  0  0  0  0  0  0  0
   34.2525    4.1114   60.0256 H   0  0  0  0  0  0  0  0  0  0  0  0
   35.6480    1.6180   59.2310 H   0  0  0  0  0  0  0  0  0  0  0  0
   35.0240    2.8440   58.2240 H   0  0  0  0  0  0  0  0  0  0  0  0
   33.9850    1.8100   59.1010 H   0  0  0  0  0  0  0  0  0  0  0  0
   39.9547    4.8611   58.3069 H   0  0  0  0  0  0  0  0  0  0  0  0
   38.1350    6.2990   59.9490 H   0  0  0  0  0  0  0  0  0  0  0  0
   37.4834    6.4968   57.5350 H   0  0  0  0  0  0  0  0  0  0  0  0
   40.2490    6.7060   57.1130 H   0  0  0  0  0  0  0  0  0  0  0  0
   39.1388    4.5403   55.8362 H   0  0  0  0  0  0  0  0  0  0  0  0
   36.6420    5.5440   55.0910 H   0  0  0  0  0  0  0  0  0  0  0  0
  1  2  1  0
  2  3  1  0
  3  4  1  0
  4  5  1  0
  5  6  1  0
  6  7  1  0
  7  8  1  0
  8  9  1  0
  8 10  1  0
 10 11  1  0
 11 12  1  0
 12 13  1  0
 13 14  1  0
 14 15  1  0
 15 16  1  0
 14 17  1  0
 17 18  1  0
 17 19  1  0
 19 20  1  0
 19 21  1  0
 21 22  1  0
 10 23  1  0
 23 24  1  0
 23 25  1  0
 25 26  1  0
 26 27  1  0
  5 28  1  0
 28 29  1  0
 28 30  1  0
 30 31  1  0
 30 32  1  0
 32 33  1  0
 32  3  1  0
 26  7  1  0
 21 12  1  0
  1 34  1  0
  1 35  1  0
  1 36  1  0
  2 37  1  0
  2 38  1  0
  3 39  1  1
  5 40  1  1
  7 41  1  1
  8 42  1  6
  9 43  1  0
 10 44  1  1
 12 45  1  6
 14 46  1  6
 15 47  1  0
 15 48  1  0
 16 49  1  0
 17 50  1  1
 18 51  1  0
 19 52  1  6
 20 53  1  0
 20 54  1  0
 20 55  1  0
 21 56  1  1
 22 57  1  0
 23 58  1  6
 24 59  1  0
 24 60  1  0
 24 61  1  0
 25 62  1  0
 25 63  1  0
 26 64  1  6
 27 65  1  0
 27 66  1  0
 27 67  1  0
 28 68  1  6
 29 69  1  0
 30 70  1  1
 31 71  1  0
 32 72  1  6
 33 73  1  0
M  CHG  4   1   1  20   1  24   1  27   1
M  END
>  <meeko>  (7) 
{"is_sidechain": [false], "free_energy": -5.939, "intermolecular_energy": -9.829, "internal_energy": -2.367}

$$$$
5iqb_KAN_vina_out
     RDKit          3D

 73 75  0  0  0  0  0  0  0  0999 V2000
   37.7970    4.2150   63.2280 N   0  0  0  0  0  4  0  0  0  0  0  0
   36.6160    4.0940   62.3690 C   0  0  0  0  0  0  0  0  0  0  0  0
   36.9050    3.3520   61.0460 C   0  0  1  0  0  0  0  0  0  0  0  0
   35.7790    2.5550   60.6970 O   0  0  0  0  0  0  0  0  0  0  0  0
   36.0490    1.7060   59.5870 C   0  0  2  0  0  0  0  0  0  0  0  0
   37.0590    0.7550   59.9190 O   0  0  0  0  0  0  0  0  0  0  0  0
   36.5420   -0.5580   60.1280 C   0  0  1  0  0  0  0  0  0  0  0  0
   37.2340   -1.5170   59.1340 C   0  0  2  0  0  0  0  0  0  0  0  0
   36.9130   -1.1190   57.8270 O   0  0  0  0  0  0  0  0  0  0  0  0
   36.7880   -2.9820   59.3330 C   0  0  1  0  0  0  0  0  0  0  0  0
   37.5570   -3.8080   58.4640 O   0  0  0  0  0  0  0  0  0  0  0  0
   36.8770   -4.0880   57.2470 C   0  0  1  0  0  0  0  0  0  0  0  0
   37.5160   -3.4550   56.1470 O   0  0  0  0  0  0  0  0  0  0  0  0
   38.8330   -3.9510   55.9420 C   0  0  2  0  0  0  0  0  0  0  0  0
   39.5140   -3.0980   54.8590 C   0  0  0  0  0  0  0  0  0  0  0  0
   40.9010   -3.0260   55.0630 O   0  0  0  0  0  0  0  0  0  0  0  0
   38.8110   -5.4480   55.5620 C   0  0  1  0  0  0  0  0  0  0  0  0
   40.1250   -5.9200   55.4000 O   0  0  0  0  0  0  0  0  0  0  0  0
   38.1270   -6.2480   56.6890 C   0  0  2  0  0  0  0  0  0  0  0  0
   37.9670   -7.6570   56.3020 N   0  0  0  0  0  4  0  0  0  0  0  0
   36.7560   -5.6140   57.0150 C   0  0  1  0  0  0  0  0  0  0  0  0
   36.1520   -6.2480   58.1170 O   0  0  0  0  0  0  0  0  0  0  0  0
   37.0320   -3.4280   60.7980 C   0  0  2  0  0  0  0  0  0  0  0  0
   36.5370   -4.7920   61.0240 N   0  0  0  0  0  4  0  0  0  0  0  0
   36.3570   -2.4620   61.7880 C   0  0  0  0  0  0  0  0  0  0  0  0
   36.8290   -1.0100   61.5830 C   0  0  2  0  0  0  0  0  0  0  0  0
   36.1580   -0.1340   62.5520 N   0  0  0  0  0  4  0  0  0  0  0  0
   36.4450    2.5270   58.3350 C   0  0  2  0  0  0  0  0  0  0  0  0
   36.8030    1.6760   57.2780 O   0  0  0  0  0  0  0  0  0  0  0  0
   37.6120    3.4770   58.6400 C   0  0  1  0  0  0  0  0  0  0  0  0
   37.8890    4.3070   57.5380 O   0  0  0  0  0  0  0  0  0  0  0  0
   37.2830    4.3100   59.8930 C   0  0  2  0  0  0  0  0  0  0  0  0
   38.3690    5.1360   60.2400 O   0  0  0  0  0  0  0  0  0  0  0  0
   38.6680    4.0180   62.6830 H   0  0  0  0  0  0  0  0  0  0  0  0
   37.8470    5.1660   63.6580 H   0  0  0  0  0  0  0  0  0  0  0  0
   37.7250    3.5070   63.9960 H   0  0  0  0  0  0  0  0  0  0  0  0
   35.8386    3.5421   62.9177 H   0  0  0  0  0  0  0  0  0  0  0  0
   36.2917    5.1128   62.1105 H   0  0  0  0  0  0  0  0  0  0  0  0
   37.7815    2.7070   61.2064 H   0  0  0  0  0  0  0  0  0  0  0  0
   35.1268    1.1580   59.3437 H   0  0  0  0  0  0  0  0  0  0  0  0
   35.4541   -0.5669   59.9657 H   0  0  0  0  0  0  0  0  0  0  0  0
   38.3183   -1.4672   59.3125 H   0  0  0  0  0  0  0  0  0  0  0  0
   35.9230   -1.0920   57.7610 H   0  0  0  0  0  0  0  0  0  0  0  0
   35.7147   -3.0703   59.1090 H   0  0  0  0  0  0  0  0  0  0  0  0
   35.8599   -3.6772   57.3285 H   0  0  0  0  0  0  0  0  0  0  0  0
   39.4092   -3.8750   56.8759 H   0  0  0  0  0  0  0  0  0  0  0  0
   39.3197   -3.5476   53.8741 H   0  0  0  0  0  0  0  0  0  0  0  0
   39.1024   -2.0792   54.9101 H   0  0  0  0  0  0  0  0  0  0  0  0
   41.3060   -3.7630   54.5330 H   0  0  0  0  0  0  0  0  0  0  0  0
   38.2580   -5.5733   54.6194 H   0  0  0  0  0  0  0  0  0  0  0  0
   40.5800   -5.8420   56.2790 H   0  0  0  0  0  0  0  0  0  0  0  0
   38.7608   -6.2142   57.5874 H   0  0  0  0  0  0  0  0  0  0  0  0
   38.1740   -8.2780   57.1180 H   0  0  0  0  0  0  0  0  0  0  0  0
   38.6380   -7.8980   55.5360 H   0  0  0  0  0  0  0  0  0  0  0  0
   36.9910   -7.8410   55.9700 H   0  0  0  0  0  0  0  0  0  0  0  0
   36.1062   -5.7653   56.1404 H   0  0  0  0  0  0  0  0  0  0  0  0
   36.6070   -7.1190   58.2480 H   0  0  0  0  0  0  0  0  0  0  0  0
   38.1184   -3.4122   60.9699 H   0  0  0  0  0  0  0  0  0  0  0  0
   36.0110   -4.8340   61.9290 H   0  0  0  0  0  0  0  0  0  0  0  0
   37.3360   -5.4590   61.0950 H   0  0  0  0  0  0  0  0  0  0  0  0
   35.9030   -5.0890   60.2470 H   0  0  0  0  0  0  0  0  0  0  0  0
   35.2676   -2.5062   61.6418 H   0  0  0  0  0  0  0  0  0  0  0  0
   36.6321   -2.7701   62.8075 H   0  0  0  0  0  0  0  0  0  0  0  0
   37.9145   -0.9476   61.7496 H   0  0  0  0  0  0  0  0  0  0  0  0
   36.7560   -0.0130   63.4020 H   0  0  0  0  0  0  0  0  0  0  0  0
   35.2330   -0.5320   62.8380 H   0  0  0  0  0  0  0  0  0  0  0  0
   36.0210    0.8120   62.1380 H   0  0  0  0  0  0  0  0  0  0  0  0
   35.5689    3.1243   58.0421 H   0  0  0  0  0  0  0  0  0  0  0  0
   37.7020    1.3150   57.4960 H   0  0  0  0  0  0  0  0  0  0  0  0
   38.5158    2.8813   58.8358 H   0  0  0  0  0  0  0  0  0  0  0  0
   37.0810    4.3230   56.9610 H   0  0  0  0  0  0  0  0  0  0  0  0
   36.4289    4.9718   59.6868 H   0  0  0  0  0  0  0  0  0  0  0  0
   38.2050    6.0340   59.8480 H   0  0  0  0  0  0  0  0  0  0  0  0
  1  2  1  0
  2  3  1  0
  3  4  1  0
  4  5  1  0
  5  6  1  0
  6  7  1  0
  7  8  1  0
  8  9  1  0
  8 10  1  0
 10 11  1  0
 11 12  1  0
 12 13  1  0
 13 14  1  0
 14 15  1  0
 15 16  1  0
 14 17  1  0
 17 18  1  0
 17 19  1  0
 19 20  1  0
 19 21  1  0
 21 22  1  0
 10 23  1  0
 23 24  1  0
 23 25  1  0
 25 26  1  0
 26 27  1  0
  5 28  1  0
 28 29  1  0
 28 30  1  0
 30 31  1  0
 30 32  1  0
 32 33  1  0
 32  3  1  0
 26  7  1  0
 21 12  1  0
  1 34  1  0
  1 35  1  0
  1 36  1  0
  2 37  1  0
  2 38  1  0
  3 39  1  1
  5 40  1  6
  7 41  1  6
  8 42  1  6
  9 43  1  0
 10 44  1  6
 12 45  1  1
 14 46  1  1
 15 47  1  0
 15 48  1  0
 16 49  1  0
 17 50  1  6
 18 51  1  0
 19 52  1  1
 20 53  1  0
 20 54  1  0
 20 55  1  0
 21 56  1  6
 22 57  1  0
 23 58  1  1
 24 59  1  0
 24 60  1  0
 24 61  1  0
 25 62  1  0
 25 63  1  0
 26 64  1  1
 27 65  1  0
 27 66  1  0
 27 67  1  0
 28 68  1  6
 29 69  1  0
 30 70  1  1
 31 71  1  0
 32 72  1  6
 33 73  1  0
M  CHG  4   1   1  20   1  24   1  27   1
M  END
>  <meeko>  (8) 
{"is_sidechain": [false], "free_energy": -5.899, "intermolecular_energy": -9.946, "internal_energy": -2.183}

$$$$
5iqb_KAN_vina_out
     RDKit          3D

 73 75  0  0  0  0  0  0  0  0999 V2000
   38.6670    8.7230   55.7070 N   0  0  0  0  0  4  0  0  0  0  0  0
   37.7860    7.9900   56.6220 C   0  0  0  0  0  0  0  0  0  0  0  0
   37.9270    6.4570   56.4950 C   0  0  1  0  0  0  0  0  0  0  0  0
   36.7790    5.9310   55.8400 O   0  0  0  0  0  0  0  0  0  0  0  0
   36.7620    4.5090   55.8550 C   0  0  2  0  0  0  0  0  0  0  0  0
   36.6520    4.0220   57.1920 O   0  0  0  0  0  0  0  0  0  0  0  0
   35.4960    3.2130   57.3990 C   0  0  1  0  0  0  0  0  0  0  0  0
   35.9150    1.9640   58.2050 C   0  0  2  0  0  0  0  0  0  0  0  0
   36.8390    1.2290   57.4450 O   0  0  0  0  0  0  0  0  0  0  0  0
   34.7110    1.0570   58.5400 C   0  0  1  0  0  0  0  0  0  0  0  0
   35.1650   -0.0000   59.3800 O   0  0  0  0  0  0  0  0  0  0  0  0
   35.7750    0.4840   60.5710 C   0  0  1  0  0  0  0  0  0  0  0  0
   34.8830    0.3950   61.6740 O   0  0  0  0  0  0  0  0  0  0  0  0
   34.5400   -0.9530   61.9700 C   0  0  2  0  0  0  0  0  0  0  0  0
   33.4440   -0.9520   63.0490 C   0  0  0  0  0  0  0  0  0  0  0  0
   33.3590    0.2950   63.6890 O   0  0  0  0  0  0  0  0  0  0  0  0
   35.7810   -1.7580   62.4150 C   0  0  1  0  0  0  0  0  0  0  0  0
   35.4200   -3.0930   62.6690 O   0  0  0  0  0  0  0  0  0  0  0  0
   36.8350   -1.7300   61.2910 C   0  0  2  0  0  0  0  0  0  0  0  0
   38.0820   -2.3710   61.7310 N   0  0  0  0  0  4  0  0  0  0  0  0
   37.0970   -0.2670   60.8640 C   0  0  1  0  0  0  0  0  0  0  0  0
   37.9690   -0.2090   59.7600 O   0  0  0  0  0  0  0  0  0  0  0  0
   33.6200    1.8620   59.2910 C   0  0  2  0  0  0  0  0  0  0  0  0
   32.4330    1.0350   59.5450 N   0  0  0  0  0  4  0  0  0  0  0  0
   33.2150    3.1170   58.4960 C   0  0  0  0  0  0  0  0  0  0  0  0
   34.4290    4.0150   58.1870 C   0  0  2  0  0  0  0  0  0  0  0  0
   33.9870    5.1940   57.4330 N   0  0  0  0  0  4  0  0  0  0  0  0
   38.0090    3.9230   55.1480 C   0  0  2  0  0  0  0  0  0  0  0  0
   38.0290    2.5240   55.2550 O   0  0  0  0  0  0  0  0  0  0  0  0
   39.3040    4.4970   55.7430 C   0  0  1  0  0  0  0  0  0  0  0  0
   40.4290    4.0590   55.0210 O   0  0  0  0  0  0  0  0  0  0  0  0
   39.2230    6.0350   55.7640 C   0  0  2  0  0  0  0  0  0  0  0  0
   40.3660    6.5840   56.3760 O   0  0  0  0  0  0  0  0  0  0  0  0
   38.3400    8.6160   54.7200 H   0  0  0  0  0  0  0  0  0  0  0  0
   38.7090    9.7350   55.9660 H   0  0  0  0  0  0  0  0  0  0  0  0
   39.6310    8.3220   55.7790 H   0  0  0  0  0  0  0  0  0  0  0  0
   38.0321    8.2806   57.6540 H   0  0  0  0  0  0  0  0  0  0  0  0
   36.7496    8.2485   56.3594 H   0  0  0  0  0  0  0  0  0  0  0  0
   37.9990    6.0396   57.5102 H   0  0  0  0  0  0  0  0  0  0  0  0
   35.8774    4.1740   55.2935 H   0  0  0  0  0  0  0  0  0  0  0  0
   35.0662    2.9116   56.4323 H   0  0  0  0  0  0  0  0  0  0  0  0
   36.3558    2.3029   59.1542 H   0  0  0  0  0  0  0  0  0  0  0  0
   36.4330    1.0740   56.5530 H   0  0  0  0  0  0  0  0  0  0  0  0
   34.2821    0.6605   57.6079 H   0  0  0  0  0  0  0  0  0  0  0  0
   36.0172    1.5460   60.4176 H   0  0  0  0  0  0  0  0  0  0  0  0
   34.1559   -1.4476   61.0657 H   0  0  0  0  0  0  0  0  0  0  0  0
   32.4766   -1.1793   62.5773 H   0  0  0  0  0  0  0  0  0  0  0  0
   33.6979   -1.7122   63.8024 H   0  0  0  0  0  0  0  0  0  0  0  0
   32.4550    0.6580   63.4900 H   0  0  0  0  0  0  0  0  0  0  0  0
   36.1928   -1.3091   63.3309 H   0  0  0  0  0  0  0  0  0  0  0  0
   34.4440   -3.1720   62.5070 H   0  0  0  0  0  0  0  0  0  0  0  0
   36.4518   -2.2940   60.4278 H   0  0  0  0  0  0  0  0  0  0  0  0
   37.8880   -3.0260   62.5250 H   0  0  0  0  0  0  0  0  0  0  0  0
   38.7590   -1.6490   62.0690 H   0  0  0  0  0  0  0  0  0  0  0  0
   38.5200   -2.9070   60.9450 H   0  0  0  0  0  0  0  0  0  0  0  0
   37.5860    0.2413   61.7081 H   0  0  0  0  0  0  0  0  0  0  0  0
   37.4510   -0.4590   58.9540 H   0  0  0  0  0  0  0  0  0  0  0  0
   34.0478    2.1735   60.2554 H   0  0  0  0  0  0  0  0  0  0  0  0
   32.3140    0.8910   60.5760 H   0  0  0  0  0  0  0  0  0  0  0  0
   32.5480    0.0950   59.1080 H   0  0  0  0  0  0  0  0  0  0  0  0
   31.5750    1.4940   59.1630 H   0  0  0  0  0  0  0  0  0  0  0  0
   32.7529    2.8043   57.5480 H   0  0  0  0  0  0  0  0  0  0  0  0
   32.5081    3.6963   59.1081 H   0  0  0  0  0  0  0  0  0  0  0  0
   34.8874    4.3546   59.1275 H   0  0  0  0  0  0  0  0  0  0  0  0
   34.6860    5.4320   56.6930 H   0  0  0  0  0  0  0  0  0  0  0  0
   33.8640    6.0190   58.0650 H   0  0  0  0  0  0  0  0  0  0  0  0
   33.0880    4.9870   56.9480 H   0  0  0  0  0  0  0  0  0  0  0  0
   37.9491    4.2056   54.0866 H   0  0  0  0  0  0  0  0  0  0  0  0
   37.7890    2.3080   56.1940 H   0  0  0  0  0  0  0  0  0  0  0  0
   39.4153    4.1322   56.7748 H   0  0  0  0  0  0  0  0  0  0  0  0
   40.4260    3.0650   55.0300 H   0  0  0  0  0  0  0  0  0  0  0  0
   39.1925    6.4217   54.7347 H   0  0  0  0  0  0  0  0  0  0  0  0
   40.4920    7.5010   56.0150 H   0  0  0  0  0  0  0  0  0  0  0  0
  1  2  1  0
  2  3  1  0
  3  4  1  0
  4  5  1  0
  5  6  1  0
  6  7  1  0
  7  8  1  0
  8  9  1  0
  8 10  1  0
 10 11  1  0
 11 12  1  0
 12 13  1  0
 13 14  1  0
 14 15  1  0
 15 16  1  0
 14 17  1  0
 17 18  1  0
 17 19  1  0
 19 20  1  0
 19 21  1  0
 21 22  1  0
 10 23  1  0
 23 24  1  0
 23 25  1  0
 25 26  1  0
 26 27  1  0
  5 28  1  0
 28 29  1  0
 28 30  1  0
 30 31  1  0
 30 32  1  0
 32 33  1  0
 32  3  1  0
 26  7  1  0
 21 12  1  0
  1 34  1  0
  1 35  1  0
  1 36  1  0
  2 37  1  0
  2 38  1  0
  3 39  1  1
  5 40  1  6
  7 41  1  6
  8 42  1  1
  9 43  1  0
 10 44  1  6
 12 45  1  6
 14 46  1  6
 15 47  1  0
 15 48  1  0
 16 49  1  0
 17 50  1  1
 18 51  1  0
 19 52  1  6
 20 53  1  0
 20 54  1  0
 20 55  1  0
 21 56  1  1
 22 57  1  0
 23 58  1  1
 24 59  1  0
 24 60  1  0
 24 61  1  0
 25 62  1  0
 25 63  1  0
 26 64  1  1
 27 65  1  0
 27 66  1  0
 27 67  1  0
 28 68  1  6
 29 69  1  0
 30 70  1  1
 31 71  1  0
 32 72  1  6
 33 73  1  0
M  CHG  4   1   1  20   1  24   1  27   1
M  END
>  <meeko>  (9) 
{"is_sidechain": [false], "free_energy": -5.88, "intermolecular_energy": -10.266, "internal_energy": -1.832}

$$$$
