MODEL 1
REMARK VINA RESULT:    -6.648      0.000      0.000
REMARK INTER + INTRA:         -13.382
REMARK INTER:                 -11.118
REMARK INTRA:                  -2.265
REMARK UNBOUND:                -2.265
REMARK SMILES [NH3+]C[C@H]1O[C@H](O[C@H]2[C@H](O)[C@@H](O[C@H]3O[C@H](CO)[C@@H](O)[C@H]([NH3+])[C@H]3O)[C@H]([NH3+])C[C@@H]2[NH3+])[C@H](O)[C@@H](O)[C@@H]1O
REMARK SMILES IDX 10 1 8 2 23 3 7 4 25 5 26 6 11 7 12 8 19 9 21 10 17 11 14 12
REMARK SMILES IDX 13 13 20 14 22 18 18 20 15 22 16 23 9 25 24 27 6 31 5 32
REMARK SMILES IDX 4 33 28 34 3 35 30 36 32 37 29 38 2 40 1 41 31 45 33 47
REMARK SMILES IDX 27 49
REMARK H PARENT 20 15 20 16 20 17 22 19 18 21 16 24 9 26 24 28 24 29 24 30
REMARK H PARENT 29 39 1 42 1 43 1 44 31 46 33 48 27 50 27 51 27 52
ROOT
ATOM      1  C   UNL     1      36.636   2.303  60.364  1.00  0.00     0.211 C 
ATOM      2  C   UNL     1      37.574   2.631  59.182  1.00  0.00     0.184 C 
ATOM      3  C   UNL     1      36.921   3.249  61.559  1.00  0.00     0.219 C 
ATOM      4  C   UNL     1      37.473   4.112  58.753  1.00  0.00     0.211 C 
ATOM      5  C   UNL     1      36.838   4.724  61.127  1.00  0.00     0.135 C 
ATOM      6  C   UNL     1      37.794   5.032  59.958  1.00  0.00     0.219 C 
ENDROOT
BRANCH   1   7
ATOM      7  O   UNL     1      36.878   0.959  60.770  1.00  0.00    -0.337 OA
BRANCH   7   8
ATOM      8  C   UNL     1      35.754   0.118  60.542  1.00  0.00     0.286 C 
ATOM      9  C   UNL     1      36.432  -1.742  62.160  1.00  0.00     0.247 C 
ATOM     10  C   UNL     1      35.376  -0.665  61.823  1.00  0.00     0.231 C 
ATOM     11  C   UNL     1      36.717  -2.595  60.909  1.00  0.00     0.206 C 
ATOM     12  C   UNL     1      37.058  -1.664  59.724  1.00  0.00     0.182 C 
ATOM     13  O   UNL     1      35.989  -0.766  59.454  1.00  0.00    -0.341 OA
BRANCH   9  14
ATOM     14  N   UNL     1      35.972  -2.588  63.271  1.00  0.00    -0.351 N 
ATOM     15  H   UNL     1      34.942  -2.754  63.193  1.00  0.00     0.344 HD
ATOM     16  H   UNL     1      36.153  -2.111  64.185  1.00  0.00     0.344 HD
ATOM     17  H   UNL     1      36.470  -3.510  63.265  1.00  0.00     0.344 HD
ENDBRANCH   9  14
BRANCH  10  18
ATOM     18  O   UNL     1      35.174   0.206  62.910  1.00  0.00    -0.382 OA
ATOM     19  H   UNL     1      35.330  -0.310  63.741  1.00  0.00     0.211 HD
ENDBRANCH  10  18
BRANCH  11  20
ATOM     20  O   UNL     1      37.803  -3.449  61.175  1.00  0.00    -0.384 OA
ATOM     21  H   UNL     1      37.729  -3.737  62.121  1.00  0.00     0.211 HD
ENDBRANCH  11  20
BRANCH  12  22
ATOM     22  C   UNL     1      37.363  -2.459  58.443  1.00  0.00     0.191 C 
BRANCH  22  23
ATOM     23  O   UNL     1      38.742  -2.681  58.297  1.00  0.00    -0.394 OA
ATOM     24  H   UNL     1      39.091  -1.947  57.725  1.00  0.00     0.210 HD
ENDBRANCH  22  23
ENDBRANCH  12  22
ENDBRANCH   7   8
ENDBRANCH   1   7
BRANCH   2  25
ATOM     25  O   UNL     1      37.226   1.822  58.089  1.00  0.00    -0.387 OA
ATOM     26  H   UNL     1      37.123   0.895  58.428  1.00  0.00     0.211 HD
ENDBRANCH   2  25
BRANCH   3  27
ATOM     27  N   UNL     1      35.983   3.004  62.662  1.00  0.00    -0.353 N 
ATOM     28  H   UNL     1      35.000   3.011  62.301  1.00  0.00     0.344 HD
ATOM     29  H   UNL     1      36.060   3.761  63.377  1.00  0.00     0.344 HD
ATOM     30  H   UNL     1      36.174   2.080  63.112  1.00  0.00     0.344 HD
ENDBRANCH   3  27
BRANCH   4  31
ATOM     31  O   UNL     1      38.415   4.340  57.706  1.00  0.00    -0.338 OA
BRANCH  31  32
ATOM     32  C   UNL     1      37.817   4.863  56.521  1.00  0.00     0.282 C 
ATOM     33  O   UNL     1      37.982   6.274  56.458  1.00  0.00    -0.338 OA
ATOM     34  C   UNL     1      38.388   4.172  55.257  1.00  0.00     0.202 C 
ATOM     35  C   UNL     1      39.351   6.647  56.349  1.00  0.00     0.207 C 
ATOM     36  C   UNL     1      39.849   4.579  55.016  1.00  0.00     0.179 C 
ATOM     37  C   UNL     1      39.966   6.114  55.034  1.00  0.00     0.180 C 
BRANCH  34  38
ATOM     38  O   UNL     1      38.307   2.777  55.375  1.00  0.00    -0.385 OA
ATOM     39  H   UNL     1      37.505   2.585  55.929  1.00  0.00     0.211 HD
ENDBRANCH  34  38
BRANCH  35  40
ATOM     40  C   UNL     1      39.477   8.180  56.488  1.00  0.00     0.294 C 
BRANCH  40  41
ATOM     41  N   UNL     1      38.443   8.909  55.746  1.00  0.00    -0.355 N 
ATOM     42  H   UNL     1      38.383   9.899  56.078  1.00  0.00     0.344 HD
ATOM     43  H   UNL     1      38.637   8.883  54.720  1.00  0.00     0.344 HD
ATOM     44  H   UNL     1      37.519   8.448  55.921  1.00  0.00     0.344 HD
ENDBRANCH  40  41
ENDBRANCH  35  40
BRANCH  36  45
ATOM     45  O   UNL     1      40.326   4.048  53.803  1.00  0.00    -0.387 OA
ATOM     46  H   UNL     1      40.263   3.059  53.860  1.00  0.00     0.211 HD
ENDBRANCH  36  45
BRANCH  37  47
ATOM     47  O   UNL     1      41.309   6.512  54.891  1.00  0.00    -0.387 OA
ATOM     48  H   UNL     1      41.670   6.691  55.799  1.00  0.00     0.211 HD
ENDBRANCH  37  47
ENDBRANCH  31  32
ENDBRANCH   4  31
BRANCH   6  49
ATOM     49  N   UNL     1      37.677   6.449  59.590  1.00  0.00    -0.353 N 
ATOM     50  H   UNL     1      36.906   6.900  60.134  1.00  0.00     0.344 HD
ATOM     51  H   UNL     1      37.481   6.554  58.567  1.00  0.00     0.344 HD
ATOM     52  H   UNL     1      38.557   6.951  59.832  1.00  0.00     0.344 HD
ENDBRANCH   6  49
TORSDOF 17
ENDMDL
MODEL 2
REMARK VINA RESULT:    -6.632      4.050      8.574
REMARK INTER + INTRA:         -13.355
REMARK INTER:                 -11.132
REMARK INTRA:                  -2.223
REMARK UNBOUND:                -2.265
REMARK SMILES [NH3+]C[C@H]1O[C@H](O[C@H]2[C@H](O)[C@@H](O[C@H]3O[C@H](CO)[C@@H](O)[C@H]([NH3+])[C@H]3O)[C@H]([NH3+])C[C@@H]2[NH3+])[C@H](O)[C@@H](O)[C@@H]1O
REMARK SMILES IDX 10 1 8 2 23 3 7 4 25 5 26 6 11 7 12 8 19 9 21 10 17 11 14 12
REMARK SMILES IDX 13 13 20 14 22 18 18 20 15 22 16 23 9 25 24 27 6 31 5 32
REMARK SMILES IDX 4 33 28 34 3 35 30 36 32 37 29 38 2 40 1 41 31 45 33 47
REMARK SMILES IDX 27 49
REMARK H PARENT 20 15 20 16 20 17 22 19 18 21 16 24 9 26 24 28 24 29 24 30
REMARK H PARENT 29 39 1 42 1 43 1 44 31 46 33 48 27 50 27 51 27 52
ROOT
ATOM      1  C   UNL     1      38.148   4.590  57.710  1.00  0.00     0.211 C 
ATOM      2  C   UNL     1      38.414   4.834  59.211  1.00  0.00     0.184 C 
ATOM      3  C   UNL     1      37.313   3.299  57.510  1.00  0.00     0.219 C 
ATOM      4  C   UNL     1      37.106   4.886  60.033  1.00  0.00     0.211 C 
ATOM      5  C   UNL     1      36.019   3.345  58.343  1.00  0.00     0.135 C 
ATOM      6  C   UNL     1      36.309   3.571  59.839  1.00  0.00     0.219 C 
ENDROOT
BRANCH   1   7
ATOM      7  O   UNL     1      39.401   4.437  57.051  1.00  0.00    -0.337 OA
BRANCH   7   8
ATOM      8  C   UNL     1      39.543   5.328  55.951  1.00  0.00     0.286 C 
ATOM      9  C   UNL     1      41.977   4.759  55.409  1.00  0.00     0.247 C 
ATOM     10  C   UNL     1      40.519   4.756  54.894  1.00  0.00     0.231 C 
ATOM     11  C   UNL     1      42.325   6.154  55.963  1.00  0.00     0.206 C 
ATOM     12  C   UNL     1      41.248   6.581  56.985  1.00  0.00     0.182 C 
ATOM     13  O   UNL     1      39.958   6.615  56.385  1.00  0.00    -0.341 OA
BRANCH   9  14
ATOM     14  N   UNL     1      42.906   4.379  54.336  1.00  0.00    -0.351 N 
ATOM     15  H   UNL     1      43.080   3.347  54.360  1.00  0.00     0.344 HD
ATOM     16  H   UNL     1      43.824   4.863  54.467  1.00  0.00     0.344 HD
ATOM     17  H   UNL     1      42.515   4.638  53.399  1.00  0.00     0.344 HD
ENDBRANCH   9  14
BRANCH  10  18
ATOM     18  O   UNL     1      40.128   3.467  54.485  1.00  0.00    -0.382 OA
ATOM     19  H   UNL     1      40.459   2.824  55.162  1.00  0.00     0.211 HD
ENDBRANCH  10  18
BRANCH  11  20
ATOM     20  O   UNL     1      43.583   6.096  56.590  1.00  0.00    -0.384 OA
ATOM     21  H   UNL     1      43.455   5.655  57.470  1.00  0.00     0.211 HD
ENDBRANCH  11  20
BRANCH  12  22
ATOM     22  C   UNL     1      41.545   7.966  57.583  1.00  0.00     0.191 C 
BRANCH  22  23
ATOM     23  O   UNL     1      42.373   7.866  58.713  1.00  0.00    -0.394 OA
ATOM     24  H   UNL     1      42.062   8.555  59.358  1.00  0.00     0.210 HD
ENDBRANCH  22  23
ENDBRANCH  12  22
ENDBRANCH   7   8
ENDBRANCH   1   7
BRANCH   2  25
ATOM     25  O   UNL     1      39.088   6.056  59.361  1.00  0.00    -0.387 OA
ATOM     26  H   UNL     1      38.406   6.776  59.321  1.00  0.00     0.211 HD
ENDBRANCH   2  25
BRANCH   3  27
ATOM     27  N   UNL     1      36.982   3.097  56.094  1.00  0.00    -0.353 N 
ATOM     28  H   UNL     1      37.095   2.087  55.842  1.00  0.00     0.344 HD
ATOM     29  H   UNL     1      37.632   3.646  55.489  1.00  0.00     0.344 HD
ATOM     30  H   UNL     1      35.997   3.389  55.900  1.00  0.00     0.344 HD
ENDBRANCH   3  27
BRANCH   4  31
ATOM     31  O   UNL     1      37.447   5.047  61.409  1.00  0.00    -0.338 OA
BRANCH  31  32
ATOM     32  C   UNL     1      36.815   6.174  62.013  1.00  0.00     0.282 C 
ATOM     33  O   UNL     1      35.763   5.756  62.874  1.00  0.00    -0.338 OA
ATOM     34  C   UNL     1      37.844   7.053  62.767  1.00  0.00     0.202 C 
ATOM     35  C   UNL     1      36.246   4.998  63.976  1.00  0.00     0.207 C 
ATOM     36  C   UNL     1      38.367   6.340  64.023  1.00  0.00     0.179 C 
ATOM     37  C   UNL     1      37.176   5.851  64.869  1.00  0.00     0.180 C 
BRANCH  34  38
ATOM     38  O   UNL     1      38.925   7.377  61.933  1.00  0.00    -0.385 OA
ATOM     39  H   UNL     1      39.686   6.808  62.221  1.00  0.00     0.211 HD
ENDBRANCH  34  38
BRANCH  35  40
ATOM     40  C   UNL     1      35.049   4.408  64.755  1.00  0.00     0.294 C 
BRANCH  40  41
ATOM     41  N   UNL     1      34.558   5.299  65.811  1.00  0.00    -0.355 N 
ATOM     42  H   UNL     1      33.514   5.352  65.789  1.00  0.00     0.344 HD
ATOM     43  H   UNL     1      34.884   4.974  66.749  1.00  0.00     0.344 HD
ATOM     44  H   UNL     1      34.939   6.259  65.641  1.00  0.00     0.344 HD
ENDBRANCH  40  41
ENDBRANCH  35  40
BRANCH  36  45
ATOM     45  O   UNL     1      39.206   7.186  64.770  1.00  0.00    -0.387 OA
ATOM     46  H   UNL     1      39.279   6.807  65.686  1.00  0.00     0.211 HD
ENDBRANCH  36  45
BRANCH  37  47
ATOM     47  O   UNL     1      37.628   5.126  65.988  1.00  0.00    -0.387 OA
ATOM     48  H   UNL     1      37.559   5.720  66.783  1.00  0.00     0.211 HD
ENDBRANCH  37  47
ENDBRANCH  31  32
ENDBRANCH   4  31
BRANCH   6  49
ATOM     49  N   UNL     1      35.044   3.603  60.584  1.00  0.00    -0.353 N 
ATOM     50  H   UNL     1      34.252   3.832  59.940  1.00  0.00     0.344 HD
ATOM     51  H   UNL     1      35.079   4.315  61.350  1.00  0.00     0.344 HD
ATOM     52  H   UNL     1      34.847   2.662  60.987  1.00  0.00     0.344 HD
ENDBRANCH   6  49
TORSDOF 17
ENDMDL
MODEL 3
REMARK VINA RESULT:    -6.400      4.388      4.941
REMARK INTER + INTRA:         -12.968
REMARK INTER:                 -10.615
REMARK INTRA:                  -2.353
REMARK UNBOUND:                -2.265
REMARK SMILES [NH3+]C[C@H]1O[C@H](O[C@H]2[C@H](O)[C@@H](O[C@H]3O[C@H](CO)[C@@H](O)[C@H]([NH3+])[C@H]3O)[C@H]([NH3+])C[C@@H]2[NH3+])[C@H](O)[C@@H](O)[C@@H]1O
REMARK SMILES IDX 10 1 8 2 23 3 7 4 25 5 26 6 11 7 12 8 19 9 21 10 17 11 14 12
REMARK SMILES IDX 13 13 20 14 22 18 18 20 15 22 16 23 9 25 24 27 6 31 5 32
REMARK SMILES IDX 4 33 28 34 3 35 30 36 32 37 29 38 2 40 1 41 31 45 33 47
REMARK SMILES IDX 27 49
REMARK H PARENT 20 15 20 16 20 17 22 19 18 21 16 24 9 26 24 28 24 29 24 30
REMARK H PARENT 29 39 1 42 1 43 1 44 31 46 33 48 27 50 27 51 27 52
ROOT
ATOM      1  C   UNL     1      35.886   4.403  56.252  1.00  0.00     0.211 C 
ATOM      2  C   UNL     1      37.423   4.260  56.203  1.00  0.00     0.184 C 
ATOM      3  C   UNL     1      35.449   5.104  57.564  1.00  0.00     0.219 C 
ATOM      4  C   UNL     1      38.140   5.619  56.371  1.00  0.00     0.211 C 
ATOM      5  C   UNL     1      36.177   6.449  57.741  1.00  0.00     0.135 C 
ATOM      6  C   UNL     1      37.708   6.280  57.706  1.00  0.00     0.219 C 
ENDROOT
BRANCH   1   7
ATOM      7  O   UNL     1      35.312   3.101  56.210  1.00  0.00    -0.337 OA
BRANCH   7   8
ATOM      8  C   UNL     1      34.655   2.843  54.974  1.00  0.00     0.286 C 
ATOM      9  C   UNL     1      32.993   1.116  55.868  1.00  0.00     0.247 C 
ATOM     10  C   UNL     1      33.162   2.500  55.199  1.00  0.00     0.231 C 
ATOM     11  C   UNL     1      33.817   0.066  55.097  1.00  0.00     0.206 C 
ATOM     12  C   UNL     1      35.270   0.569  54.945  1.00  0.00     0.182 C 
ATOM     13  O   UNL     1      35.312   1.811  54.252  1.00  0.00    -0.341 OA
BRANCH   9  14
ATOM     14  N   UNL     1      31.575   0.733  55.913  1.00  0.00    -0.351 N 
ATOM     15  H   UNL     1      31.427  -0.158  55.386  1.00  0.00     0.344 HD
ATOM     16  H   UNL     1      30.987   1.473  55.465  1.00  0.00     0.344 HD
ATOM     17  H   UNL     1      31.259   0.601  56.903  1.00  0.00     0.344 HD
ENDBRANCH   9  14
BRANCH  10  18
ATOM     18  O   UNL     1      32.516   3.506  55.942  1.00  0.00    -0.382 OA
ATOM     19  H   UNL     1      31.559   3.261  56.009  1.00  0.00     0.211 HD
ENDBRANCH  10  18
BRANCH  11  20
ATOM     20  O   UNL     1      33.801  -1.143  55.814  1.00  0.00    -0.384 OA
ATOM     21  H   UNL     1      34.742  -1.365  56.042  1.00  0.00     0.211 HD
ENDBRANCH  11  20
BRANCH  12  22
ATOM     22  C   UNL     1      36.148  -0.442  54.190  1.00  0.00     0.191 C 
BRANCH  22  23
ATOM     23  O   UNL     1      36.769  -1.338  55.075  1.00  0.00    -0.394 OA
ATOM     24  H   UNL     1      37.721  -1.401  54.796  1.00  0.00     0.210 HD
ENDBRANCH  22  23
ENDBRANCH  12  22
ENDBRANCH   7   8
ENDBRANCH   1   7
BRANCH   2  25
ATOM     25  O   UNL     1      37.788   3.710  54.964  1.00  0.00    -0.387 OA
ATOM     26  H   UNL     1      38.022   4.465  54.363  1.00  0.00     0.211 HD
ENDBRANCH   2  25
BRANCH   3  27
ATOM     27  N   UNL     1      33.997   5.321  57.589  1.00  0.00    -0.353 N 
ATOM     28  H   UNL     1      33.642   5.461  56.614  1.00  0.00     0.344 HD
ATOM     29  H   UNL     1      33.770   6.183  58.133  1.00  0.00     0.344 HD
ATOM     30  H   UNL     1      33.508   4.501  58.016  1.00  0.00     0.344 HD
ENDBRANCH   3  27
BRANCH   4  31
ATOM     31  O   UNL     1      39.547   5.385  56.380  1.00  0.00    -0.338 OA
BRANCH  31  32
ATOM     32  C   UNL     1      40.239   6.104  55.361  1.00  0.00     0.282 C 
ATOM     33  O   UNL     1      40.772   7.317  55.879  1.00  0.00    -0.338 OA
ATOM     34  C   UNL     1      41.345   5.233  54.716  1.00  0.00     0.202 C 
ATOM     35  C   UNL     1      41.764   7.082  56.872  1.00  0.00     0.207 C 
ATOM     36  C   UNL     1      42.501   4.989  55.697  1.00  0.00     0.179 C 
ATOM     37  C   UNL     1      42.979   6.335  56.274  1.00  0.00     0.180 C 
BRANCH  34  38
ATOM     38  O   UNL     1      40.823   4.000  54.297  1.00  0.00    -0.385 OA
ATOM     39  H   UNL     1      41.406   3.297  54.689  1.00  0.00     0.211 HD
ENDBRANCH  34  38
BRANCH  35  40
ATOM     40  C   UNL     1      42.155   8.422  57.532  1.00  0.00     0.294 C 
BRANCH  40  41
ATOM     41  N   UNL     1      42.483   8.286  58.954  1.00  0.00    -0.355 N 
ATOM     42  H   UNL     1      42.344   7.298  59.269  1.00  0.00     0.344 HD
ATOM     43  H   UNL     1      43.466   8.588  59.138  1.00  0.00     0.344 HD
ATOM     44  H   UNL     1      41.838   8.899  59.506  1.00  0.00     0.344 HD
ENDBRANCH  40  41
ENDBRANCH  35  40
BRANCH  36  45
ATOM     45  O   UNL     1      43.558   4.302  55.071  1.00  0.00    -0.387 OA
ATOM     46  H   UNL     1      43.252   3.373  54.896  1.00  0.00     0.211 HD
ENDBRANCH  36  45
BRANCH  37  47
ATOM     47  O   UNL     1      43.988   6.133  57.234  1.00  0.00    -0.387 OA
ATOM     48  H   UNL     1      43.550   5.844  58.079  1.00  0.00     0.211 HD
ENDBRANCH  37  47
ENDBRANCH  31  32
ENDBRANCH   4  31
BRANCH   6  49
ATOM     49  N   UNL     1      38.350   7.589  57.881  1.00  0.00    -0.353 N 
ATOM     50  H   UNL     1      39.281   7.601  57.404  1.00  0.00     0.344 HD
ATOM     51  H   UNL     1      38.482   7.808  58.895  1.00  0.00     0.344 HD
ATOM     52  H   UNL     1      37.769   8.330  57.434  1.00  0.00     0.344 HD
ENDBRANCH   6  49
TORSDOF 17
ENDMDL
MODEL 4
REMARK VINA RESULT:    -6.229      4.301      5.173
REMARK INTER + INTRA:         -12.682
REMARK INTER:                 -10.551
REMARK INTRA:                  -2.130
REMARK UNBOUND:                -2.265
REMARK SMILES [NH3+]C[C@H]1O[C@H](O[C@H]2[C@H](O)[C@@H](O[C@H]3O[C@H](CO)[C@@H](O)[C@H]([NH3+])[C@H]3O)[C@H]([NH3+])C[C@@H]2[NH3+])[C@H](O)[C@@H](O)[C@@H]1O
REMARK SMILES IDX 10 1 8 2 23 3 7 4 25 5 26 6 11 7 12 8 19 9 21 10 17 11 14 12
REMARK SMILES IDX 13 13 20 14 22 18 18 20 15 22 16 23 9 25 24 27 6 31 5 32
REMARK SMILES IDX 4 33 28 34 3 35 30 36 32 37 29 38 2 40 1 41 31 45 33 47
REMARK SMILES IDX 27 49
REMARK H PARENT 20 15 20 16 20 17 22 19 18 21 16 24 9 26 24 28 24 29 24 30
REMARK H PARENT 29 39 1 42 1 43 1 44 31 46 33 48 27 50 27 51 27 52
ROOT
ATOM      1  C   UNL     1      35.558   4.845  55.976  1.00  0.00     0.211 C 
ATOM      2  C   UNL     1      37.064   4.556  55.791  1.00  0.00     0.184 C 
ATOM      3  C   UNL     1      35.251   5.184  57.458  1.00  0.00     0.219 C 
ATOM      4  C   UNL     1      37.946   5.724  56.286  1.00  0.00     0.211 C 
ATOM      5  C   UNL     1      36.142   6.337  57.956  1.00  0.00     0.135 C 
ATOM      6  C   UNL     1      37.640   6.020  57.777  1.00  0.00     0.219 C 
ENDROOT
BRANCH   1   7
ATOM      7  O   UNL     1      34.829   3.678  55.609  1.00  0.00    -0.337 OA
BRANCH   7   8
ATOM      8  C   UNL     1      35.247   2.531  56.339  1.00  0.00     0.286 C 
ATOM      9  C   UNL     1      33.899   0.814  55.006  1.00  0.00     0.247 C 
ATOM     10  C   UNL     1      35.311   1.283  55.425  1.00  0.00     0.231 C 
ATOM     11  C   UNL     1      33.005   0.688  56.256  1.00  0.00     0.206 C 
ATOM     12  C   UNL     1      33.068   2.005  57.061  1.00  0.00     0.182 C 
ATOM     13  O   UNL     1      34.402   2.300  57.458  1.00  0.00    -0.341 OA
BRANCH   9  14
ATOM     14  N   UNL     1      33.970  -0.466  54.287  1.00  0.00    -0.351 N 
ATOM     15  H   UNL     1      34.800  -0.474  53.651  1.00  0.00     0.344 HD
ATOM     16  H   UNL     1      33.114  -0.598  53.701  1.00  0.00     0.344 HD
ATOM     17  H   UNL     1      34.047  -1.265  54.961  1.00  0.00     0.344 HD
ENDBRANCH   9  14
BRANCH  10  18
ATOM     18  O   UNL     1      36.122   1.519  54.299  1.00  0.00    -0.382 OA
ATOM     19  H   UNL     1      35.919   2.431  53.969  1.00  0.00     0.211 HD
ENDBRANCH  10  18
BRANCH  11  20
ATOM     20  O   UNL     1      31.683   0.439  55.848  1.00  0.00    -0.384 OA
ATOM     21  H   UNL     1      31.719   0.092  54.919  1.00  0.00     0.211 HD
ENDBRANCH  11  20
BRANCH  12  22
ATOM     22  C   UNL     1      32.186   1.946  58.320  1.00  0.00     0.191 C 
BRANCH  22  23
ATOM     23  O   UNL     1      31.984   0.622  58.740  1.00  0.00    -0.394 OA
ATOM     24  H   UNL     1      31.651   0.119  57.950  1.00  0.00     0.210 HD
ENDBRANCH  22  23
ENDBRANCH  12  22
ENDBRANCH   7   8
ENDBRANCH   1   7
BRANCH   2  25
ATOM     25  O   UNL     1      37.321   4.346  54.427  1.00  0.00    -0.387 OA
ATOM     26  H   UNL     1      38.243   3.987  54.352  1.00  0.00     0.211 HD
ENDBRANCH   2  25
BRANCH   3  27
ATOM     27  N   UNL     1      33.837   5.542  57.636  1.00  0.00    -0.353 N 
ATOM     28  H   UNL     1      33.506   6.101  56.815  1.00  0.00     0.344 HD
ATOM     29  H   UNL     1      33.719   6.133  58.487  1.00  0.00     0.344 HD
ATOM     30  H   UNL     1      33.248   4.682  57.723  1.00  0.00     0.344 HD
ENDBRANCH   3  27
BRANCH   4  31
ATOM     31  O   UNL     1      39.313   5.347  56.139  1.00  0.00    -0.338 OA
BRANCH  31  32
ATOM     32  C   UNL     1      39.997   6.104  55.142  1.00  0.00     0.282 C 
ATOM     33  O   UNL     1      40.583   7.269  55.712  1.00  0.00    -0.338 OA
ATOM     34  C   UNL     1      41.057   5.240  54.414  1.00  0.00     0.202 C 
ATOM     35  C   UNL     1      41.596   6.948  56.658  1.00  0.00     0.207 C 
ATOM     36  C   UNL     1      42.233   4.906  55.344  1.00  0.00     0.179 C 
ATOM     37  C   UNL     1      42.769   6.202  55.981  1.00  0.00     0.180 C 
BRANCH  34  38
ATOM     38  O   UNL     1      40.486   4.049  53.942  1.00  0.00    -0.385 OA
ATOM     39  H   UNL     1      39.788   3.788  54.599  1.00  0.00     0.211 HD
ENDBRANCH  34  38
BRANCH  35  40
ATOM     40  C   UNL     1      42.046   8.236  57.382  1.00  0.00     0.294 C 
BRANCH  40  41
ATOM     41  N   UNL     1      42.449   8.000  58.771  1.00  0.00    -0.355 N 
ATOM     42  H   UNL     1      43.464   7.752  58.821  1.00  0.00     0.344 HD
ATOM     43  H   UNL     1      42.254   8.841  59.361  1.00  0.00     0.344 HD
ATOM     44  H   UNL     1      41.896   7.195  59.148  1.00  0.00     0.344 HD
ENDBRANCH  40  41
ENDBRANCH  35  40
BRANCH  36  45
ATOM     45  O   UNL     1      43.249   4.226  54.648  1.00  0.00    -0.387 OA
ATOM     46  H   UNL     1      44.088   4.315  55.173  1.00  0.00     0.211 HD
ENDBRANCH  36  45
BRANCH  37  47
ATOM     47  O   UNL     1      43.799   5.915  56.897  1.00  0.00    -0.387 OA
ATOM     48  H   UNL     1      44.130   4.998  56.705  1.00  0.00     0.211 HD
ENDBRANCH  37  47
ENDBRANCH  31  32
ENDBRANCH   4  31
BRANCH   6  49
ATOM     49  N   UNL     1      38.441   7.148  58.269  1.00  0.00    -0.353 N 
ATOM     50  H   UNL     1      38.640   7.030  59.289  1.00  0.00     0.344 HD
ATOM     51  H   UNL     1      37.941   8.055  58.120  1.00  0.00     0.344 HD
ATOM     52  H   UNL     1      39.361   7.168  57.779  1.00  0.00     0.344 HD
ENDBRANCH   6  49
TORSDOF 17
ENDMDL
MODEL 5
REMARK VINA RESULT:    -6.219      1.928      2.604
REMARK INTER + INTRA:         -12.664
REMARK INTER:                 -10.650
REMARK INTRA:                  -2.014
REMARK UNBOUND:                -2.265
REMARK SMILES [NH3+]C[C@H]1O[C@H](O[C@H]2[C@H](O)[C@@H](O[C@H]3O[C@H](CO)[C@@H](O)[C@H]([NH3+])[C@H]3O)[C@H]([NH3+])C[C@@H]2[NH3+])[C@H](O)[C@@H](O)[C@@H]1O
REMARK SMILES IDX 10 1 8 2 23 3 7 4 25 5 26 6 11 7 12 8 19 9 21 10 17 11 14 12
REMARK SMILES IDX 13 13 20 14 22 18 18 20 15 22 16 23 9 25 24 27 6 31 5 32
REMARK SMILES IDX 4 33 28 34 3 35 30 36 32 37 29 38 2 40 1 41 31 45 33 47
REMARK SMILES IDX 27 49
REMARK H PARENT 20 15 20 16 20 17 22 19 18 21 16 24 9 26 24 28 24 29 24 30
REMARK H PARENT 29 39 1 42 1 43 1 44 31 46 33 48 27 50 27 51 27 52
ROOT
ATOM      1  C   UNL     1      35.974   2.281  59.315  1.00  0.00     0.211 C 
ATOM      2  C   UNL     1      37.011   2.475  58.187  1.00  0.00     0.184 C 
ATOM      3  C   UNL     1      36.574   2.707  60.680  1.00  0.00     0.219 C 
ATOM      4  C   UNL     1      37.546   3.923  58.129  1.00  0.00     0.211 C 
ATOM      5  C   UNL     1      37.123   4.144  60.617  1.00  0.00     0.135 C 
ATOM      6  C   UNL     1      38.167   4.309  59.496  1.00  0.00     0.219 C 
ENDROOT
BRANCH   1   7
ATOM      7  O   UNL     1      35.626   0.902  59.373  1.00  0.00    -0.337 OA
BRANCH   7   8
ATOM      8  C   UNL     1      36.770   0.063  59.487  1.00  0.00     0.286 C 
ATOM      9  C   UNL     1      35.546  -2.163  59.190  1.00  0.00     0.247 C 
ATOM     10  C   UNL     1      36.617  -1.208  58.616  1.00  0.00     0.231 C 
ATOM     11  C   UNL     1      35.819  -2.402  60.688  1.00  0.00     0.206 C 
ATOM     12  C   UNL     1      35.962  -1.041  61.404  1.00  0.00     0.182 C 
ATOM     13  O   UNL     1      37.022  -0.276  60.844  1.00  0.00    -0.341 OA
BRANCH   9  14
ATOM     14  N   UNL     1      35.539  -3.435  58.454  1.00  0.00    -0.351 N 
ATOM     15  H   UNL     1      35.915  -3.293  57.488  1.00  0.00     0.344 HD
ATOM     16  H   UNL     1      34.560  -3.795  58.368  1.00  0.00     0.344 HD
ATOM     17  H   UNL     1      36.123  -4.152  58.947  1.00  0.00     0.344 HD
ENDBRANCH   9  14
BRANCH  10  18
ATOM     18  O   UNL     1      36.335  -0.875  57.277  1.00  0.00    -0.382 OA
ATOM     19  H   UNL     1      35.949  -1.677  56.844  1.00  0.00     0.211 HD
ENDBRANCH  10  18
BRANCH  11  20
ATOM     20  O   UNL     1      34.743  -3.122  61.239  1.00  0.00    -0.384 OA
ATOM     21  H   UNL     1      34.171  -2.473  61.726  1.00  0.00     0.211 HD
ENDBRANCH  11  20
BRANCH  12  22
ATOM     22  C   UNL     1      36.226  -1.212  62.909  1.00  0.00     0.191 C 
BRANCH  22  23
ATOM     23  O   UNL     1      37.245  -2.149  63.145  1.00  0.00    -0.394 OA
ATOM     24  H   UNL     1      36.952  -2.702  63.917  1.00  0.00     0.210 HD
ENDBRANCH  22  23
ENDBRANCH  12  22
ENDBRANCH   7   8
ENDBRANCH   1   7
BRANCH   2  25
ATOM     25  O   UNL     1      36.406   2.170  56.957  1.00  0.00    -0.387 OA
ATOM     26  H   UNL     1      36.704   2.855  56.303  1.00  0.00     0.211 HD
ENDBRANCH   2  25
BRANCH   3  27
ATOM     27  N   UNL     1      35.574   2.607  61.751  1.00  0.00    -0.353 N 
ATOM     28  H   UNL     1      35.965   2.998  62.640  1.00  0.00     0.344 HD
ATOM     29  H   UNL     1      35.333   1.607  61.927  1.00  0.00     0.344 HD
ATOM     30  H   UNL     1      34.708   3.135  61.497  1.00  0.00     0.344 HD
ENDBRANCH   3  27
BRANCH   4  31
ATOM     31  O   UNL     1      38.540   3.994  57.109  1.00  0.00    -0.338 OA
BRANCH  31  32
ATOM     32  C   UNL     1      38.345   5.089  56.215  1.00  0.00     0.282 C 
ATOM     33  O   UNL     1      39.422   6.013  56.315  1.00  0.00    -0.338 OA
ATOM     34  C   UNL     1      38.162   4.594  54.759  1.00  0.00     0.202 C 
ATOM     35  C   UNL     1      40.656   5.441  55.899  1.00  0.00     0.207 C 
ATOM     36  C   UNL     1      39.473   4.025  54.197  1.00  0.00     0.179 C 
ATOM     37  C   UNL     1      40.607   5.046  54.405  1.00  0.00     0.180 C 
BRANCH  34  38
ATOM     38  O   UNL     1      37.162   3.611  54.691  1.00  0.00    -0.385 OA
ATOM     39  H   UNL     1      36.826   3.485  55.617  1.00  0.00     0.211 HD
ENDBRANCH  34  38
BRANCH  35  40
ATOM     40  C   UNL     1      41.807   6.420  56.219  1.00  0.00     0.294 C 
BRANCH  40  41
ATOM     41  N   UNL     1      43.120   5.768  56.256  1.00  0.00    -0.355 N 
ATOM     42  H   UNL     1      43.013   4.737  56.393  1.00  0.00     0.344 HD
ATOM     43  H   UNL     1      43.654   5.963  55.379  1.00  0.00     0.344 HD
ATOM     44  H   UNL     1      43.661   6.152  57.066  1.00  0.00     0.344 HD
ENDBRANCH  40  41
ENDBRANCH  35  40
BRANCH  36  45
ATOM     45  O   UNL     1      39.336   3.690  52.837  1.00  0.00    -0.387 OA
ATOM     46  H   UNL     1      40.216   3.360  52.517  1.00  0.00     0.211 HD
ENDBRANCH  36  45
BRANCH  37  47
ATOM     47  O   UNL     1      41.837   4.518  53.967  1.00  0.00    -0.387 OA
ATOM     48  H   UNL     1      42.508   4.681  54.682  1.00  0.00     0.211 HD
ENDBRANCH  37  47
ENDBRANCH  31  32
ENDBRANCH   4  31
BRANCH   6  49
ATOM     49  N   UNL     1      38.657   5.693  59.483  1.00  0.00    -0.353 N 
ATOM     50  H   UNL     1      39.304   5.854  60.290  1.00  0.00     0.344 HD
ATOM     51  H   UNL     1      37.863   6.372  59.541  1.00  0.00     0.344 HD
ATOM     52  H   UNL     1      39.205   5.866  58.614  1.00  0.00     0.344 HD
ENDBRANCH   6  49
TORSDOF 17
ENDMDL
MODEL 6
REMARK VINA RESULT:    -5.957      3.686      7.591
REMARK INTER + INTRA:         -12.226
REMARK INTER:                 -10.122
REMARK INTRA:                  -2.104
REMARK UNBOUND:                -2.265
REMARK SMILES [NH3+]C[C@H]1O[C@H](O[C@H]2[C@H](O)[C@@H](O[C@H]3O[C@H](CO)[C@@H](O)[C@H]([NH3+])[C@H]3O)[C@H]([NH3+])C[C@@H]2[NH3+])[C@H](O)[C@@H](O)[C@@H]1O
REMARK SMILES IDX 10 1 8 2 23 3 7 4 25 5 26 6 11 7 12 8 19 9 21 10 17 11 14 12
REMARK SMILES IDX 13 13 20 14 22 18 18 20 15 22 16 23 9 25 24 27 6 31 5 32
REMARK SMILES IDX 4 33 28 34 3 35 30 36 32 37 29 38 2 40 1 41 31 45 33 47
REMARK SMILES IDX 27 49
REMARK H PARENT 20 15 20 16 20 17 22 19 18 21 16 24 9 26 24 28 24 29 24 30
REMARK H PARENT 29 39 1 42 1 43 1 44 31 46 33 48 27 50 27 51 27 52
ROOT
ATOM      1  C   UNL     1      38.163   4.252  58.675  1.00  0.00     0.211 C 
ATOM      2  C   UNL     1      36.922   3.517  58.122  1.00  0.00     0.184 C 
ATOM      3  C   UNL     1      37.796   5.703  59.079  1.00  0.00     0.219 C 
ATOM      4  C   UNL     1      35.743   3.534  59.119  1.00  0.00     0.211 C 
ATOM      5  C   UNL     1      36.609   5.720  60.059  1.00  0.00     0.135 C 
ATOM      6  C   UNL     1      35.378   4.997  59.480  1.00  0.00     0.219 C 
ENDROOT
BRANCH   1   7
ATOM      7  O   UNL     1      39.154   4.293  57.653  1.00  0.00    -0.337 OA
BRANCH   7   8
ATOM      8  C   UNL     1      38.929   5.351  56.729  1.00  0.00     0.286 C 
ATOM      9  C   UNL     1      39.859   4.157  54.667  1.00  0.00     0.247 C 
ATOM     10  C   UNL     1      38.612   4.799  55.317  1.00  0.00     0.231 C 
ATOM     11  C   UNL     1      41.048   5.133  54.757  1.00  0.00     0.206 C 
ATOM     12  C   UNL     1      41.215   5.600  56.220  1.00  0.00     0.182 C 
ATOM     13  O   UNL     1      40.036   6.241  56.691  1.00  0.00    -0.341 OA
BRANCH   9  14
ATOM     14  N   UNL     1      39.586   3.798  53.268  1.00  0.00    -0.351 N 
ATOM     15  H   UNL     1      39.270   4.642  52.736  1.00  0.00     0.344 HD
ATOM     16  H   UNL     1      38.823   3.084  53.222  1.00  0.00     0.344 HD
ATOM     17  H   UNL     1      40.445   3.407  52.812  1.00  0.00     0.344 HD
ENDBRANCH   9  14
BRANCH  10  18
ATOM     18  O   UNL     1      37.536   3.892  55.357  1.00  0.00    -0.382 OA
ATOM     19  H   UNL     1      36.719   4.405  55.581  1.00  0.00     0.211 HD
ENDBRANCH  10  18
BRANCH  11  20
ATOM     20  O   UNL     1      42.214   4.474  54.329  1.00  0.00    -0.384 OA
ATOM     21  H   UNL     1      42.471   4.863  53.453  1.00  0.00     0.211 HD
ENDBRANCH  11  20
BRANCH  12  22
ATOM     22  C   UNL     1      42.396   6.572  56.378  1.00  0.00     0.191 C 
BRANCH  22  23
ATOM     23  O   UNL     1      42.762   7.135  55.145  1.00  0.00    -0.394 OA
ATOM     24  H   UNL     1      43.529   6.603  54.804  1.00  0.00     0.210 HD
ENDBRANCH  22  23
ENDBRANCH  12  22
ENDBRANCH   7   8
ENDBRANCH   1   7
BRANCH   2  25
ATOM     25  O   UNL     1      37.267   2.183  57.855  1.00  0.00    -0.387 OA
ATOM     26  H   UNL     1      36.586   1.608  58.293  1.00  0.00     0.211 HD
ENDBRANCH   2  25
BRANCH   3  27
ATOM     27  N   UNL     1      38.946   6.390  59.683  1.00  0.00    -0.353 N 
ATOM     28  H   UNL     1      38.642   6.897  60.548  1.00  0.00     0.344 HD
ATOM     29  H   UNL     1      39.331   7.099  59.022  1.00  0.00     0.344 HD
ATOM     30  H   UNL     1      39.694   5.704  59.935  1.00  0.00     0.344 HD
ENDBRANCH   3  27
BRANCH   4  31
ATOM     31  O   UNL     1      34.625   2.896  58.504  1.00  0.00    -0.338 OA
BRANCH  31  32
ATOM     32  C   UNL     1      34.143   3.597  57.359  1.00  0.00     0.282 C 
ATOM     33  O   UNL     1      34.718   3.069  56.170  1.00  0.00    -0.338 OA
ATOM     34  C   UNL     1      32.595   3.565  57.297  1.00  0.00     0.202 C 
ATOM     35  C   UNL     1      34.327   1.720  55.941  1.00  0.00     0.207 C 
ATOM     36  C   UNL     1      32.082   2.154  56.976  1.00  0.00     0.179 C 
ATOM     37  C   UNL     1      32.799   1.617  55.724  1.00  0.00     0.180 C 
BRANCH  34  38
ATOM     38  O   UNL     1      32.042   3.997  58.511  1.00  0.00    -0.385 OA
ATOM     39  H   UNL     1      32.578   3.576  59.233  1.00  0.00     0.211 HD
ENDBRANCH  34  38
BRANCH  35  40
ATOM     40  C   UNL     1      35.137   1.146  54.758  1.00  0.00     0.294 C 
BRANCH  40  41
ATOM     41  N   UNL     1      36.580   1.112  55.015  1.00  0.00    -0.355 N 
ATOM     42  H   UNL     1      36.936   0.129  54.974  1.00  0.00     0.344 HD
ATOM     43  H   UNL     1      37.093   1.712  54.329  1.00  0.00     0.344 HD
ATOM     44  H   UNL     1      36.756   1.484  55.978  1.00  0.00     0.344 HD
ENDBRANCH  40  41
ENDBRANCH  35  40
BRANCH  36  45
ATOM     45  O   UNL     1      30.686   2.153  56.800  1.00  0.00    -0.387 OA
ATOM     46  H   UNL     1      30.456   1.386  56.212  1.00  0.00     0.211 HD
ENDBRANCH  36  45
BRANCH  37  47
ATOM     47  O   UNL     1      32.402   0.294  55.453  1.00  0.00    -0.387 OA
ATOM     48  H   UNL     1      31.672   0.061  56.086  1.00  0.00     0.211 HD
ENDBRANCH  37  47
ENDBRANCH  31  32
ENDBRANCH   4  31
BRANCH   6  49
ATOM     49  N   UNL     1      34.279   5.045  60.452  1.00  0.00    -0.353 N 
ATOM     50  H   UNL     1      33.763   5.952  60.368  1.00  0.00     0.344 HD
ATOM     51  H   UNL     1      34.639   4.946  61.430  1.00  0.00     0.344 HD
ATOM     52  H   UNL     1      33.595   4.286  60.250  1.00  0.00     0.344 HD
ENDBRANCH   6  49
TORSDOF 17
ENDMDL
MODEL 7
REMARK VINA RESULT:    -5.939      4.307      6.730
REMARK INTER + INTRA:         -12.196
REMARK INTER:                  -9.829
REMARK INTRA:                  -2.367
REMARK UNBOUND:                -2.265
REMARK SMILES [NH3+]C[C@H]1O[C@H](O[C@H]2[C@H](O)[C@@H](O[C@H]3O[C@H](CO)[C@@H](O)[C@H]([NH3+])[C@H]3O)[C@H]([NH3+])C[C@@H]2[NH3+])[C@H](O)[C@@H](O)[C@@H]1O
REMARK SMILES IDX 10 1 8 2 23 3 7 4 25 5 26 6 11 7 12 8 19 9 21 10 17 11 14 12
REMARK SMILES IDX 13 13 20 14 22 18 18 20 15 22 16 23 9 25 24 27 6 31 5 32
REMARK SMILES IDX 4 33 28 34 3 35 30 36 32 37 29 38 2 40 1 41 31 45 33 47
REMARK SMILES IDX 27 49
REMARK H PARENT 20 15 20 16 20 17 22 19 18 21 16 24 9 26 24 28 24 29 24 30
REMARK H PARENT 29 39 1 42 1 43 1 44 31 46 33 48 27 50 27 51 27 52
ROOT
ATOM      1  C   UNL     1      35.763   4.045  63.019  1.00  0.00     0.211 C 
ATOM      2  C   UNL     1      36.311   4.741  61.755  1.00  0.00     0.184 C 
ATOM      3  C   UNL     1      34.351   3.462  62.747  1.00  0.00     0.219 C 
ATOM      4  C   UNL     1      36.328   3.797  60.532  1.00  0.00     0.211 C 
ATOM      5  C   UNL     1      34.365   2.535  61.518  1.00  0.00     0.135 C 
ATOM      6  C   UNL     1      34.900   3.255  60.265  1.00  0.00     0.219 C 
ENDROOT
BRANCH   1   7
ATOM      7  O   UNL     1      35.670   5.012  64.060  1.00  0.00    -0.337 OA
BRANCH   7   8
ATOM      8  C   UNL     1      36.635   4.795  65.083  1.00  0.00     0.286 C 
ATOM      9  C   UNL     1      35.533   6.269  66.859  1.00  0.00     0.247 C 
ATOM     10  C   UNL     1      35.979   4.837  66.485  1.00  0.00     0.231 C 
ATOM     11  C   UNL     1      36.701   7.249  66.632  1.00  0.00     0.206 C 
ATOM     12  C   UNL     1      37.249   7.066  65.200  1.00  0.00     0.182 C 
ATOM     13  O   UNL     1      37.699   5.733  64.990  1.00  0.00    -0.341 OA
BRANCH   9  14
ATOM     14  N   UNL     1      35.075   6.321  68.255  1.00  0.00    -0.351 N 
ATOM     15  H   UNL     1      34.761   5.372  68.564  1.00  0.00     0.344 HD
ATOM     16  H   UNL     1      34.262   6.974  68.343  1.00  0.00     0.344 HD
ATOM     17  H   UNL     1      35.845   6.649  68.885  1.00  0.00     0.344 HD
ENDBRANCH   9  14
BRANCH  10  18
ATOM     18  O   UNL     1      34.904   3.932  66.570  1.00  0.00    -0.382 OA
ATOM     19  H   UNL     1      35.187   3.089  66.134  1.00  0.00     0.211 HD
ENDBRANCH  10  18
BRANCH  11  20
ATOM     20  O   UNL     1      36.233   8.564  66.801  1.00  0.00    -0.384 OA
ATOM     21  H   UNL     1      35.903   8.645  67.734  1.00  0.00     0.211 HD
ENDBRANCH  11  20
BRANCH  12  22
ATOM     22  C   UNL     1      38.414   8.026  64.907  1.00  0.00     0.191 C 
BRANCH  22  23
ATOM     23  O   UNL     1      39.002   8.491  66.094  1.00  0.00    -0.394 OA
ATOM     24  H   UNL     1      39.039   7.717  66.717  1.00  0.00     0.210 HD
ENDBRANCH  22  23
ENDBRANCH  12  22
ENDBRANCH   7   8
ENDBRANCH   1   7
BRANCH   2  25
ATOM     25  O   UNL     1      37.623   5.172  62.007  1.00  0.00    -0.387 OA
ATOM     26  H   UNL     1      37.637   5.556  62.922  1.00  0.00     0.211 HD
ENDBRANCH   2  25
BRANCH   3  27
ATOM     27  N   UNL     1      33.850   2.726  63.915  1.00  0.00    -0.353 N 
ATOM     28  H   UNL     1      34.410   1.852  64.051  1.00  0.00     0.344 HD
ATOM     29  H   UNL     1      32.857   2.442  63.764  1.00  0.00     0.344 HD
ATOM     30  H   UNL     1      33.917   3.312  64.778  1.00  0.00     0.344 HD
ENDBRANCH   3  27
BRANCH   4  31
ATOM     31  O   UNL     1      36.783   4.537  59.400  1.00  0.00    -0.338 OA
BRANCH  31  32
ATOM     32  C   UNL     1      38.040   4.080  58.904  1.00  0.00     0.282 C 
ATOM     33  O   UNL     1      37.853   3.204  57.799  1.00  0.00    -0.338 OA
ATOM     34  C   UNL     1      38.958   5.270  58.529  1.00  0.00     0.202 C 
ATOM     35  C   UNL     1      37.262   3.866  56.687  1.00  0.00     0.207 C 
ATOM     36  C   UNL     1      38.434   6.003  57.285  1.00  0.00     0.179 C 
ATOM     37  C   UNL     1      38.185   4.986  56.155  1.00  0.00     0.180 C 
BRANCH  34  38
ATOM     38  O   UNL     1      39.055   6.176  59.596  1.00  0.00    -0.385 OA
ATOM     39  H   UNL     1      38.135   6.299  59.949  1.00  0.00     0.211 HD
ENDBRANCH  34  38
BRANCH  35  40
ATOM     40  C   UNL     1      36.902   2.825  55.604  1.00  0.00     0.294 C 
BRANCH  40  41
ATOM     41  N   UNL     1      38.065   2.377  54.832  1.00  0.00    -0.355 N 
ATOM     42  H   UNL     1      38.763   1.912  55.458  1.00  0.00     0.344 HD
ATOM     43  H   UNL     1      37.773   1.726  54.069  1.00  0.00     0.344 HD
ATOM     44  H   UNL     1      38.521   3.214  54.399  1.00  0.00     0.344 HD
ENDBRANCH  40  41
ENDBRANCH  35  40
BRANCH  36  45
ATOM     45  O   UNL     1      39.332   7.006  56.875  1.00  0.00    -0.387 OA
ATOM     46  H   UNL     1      40.249   6.706  57.113  1.00  0.00     0.211 HD
ENDBRANCH  36  45
BRANCH  37  47
ATOM     47  O   UNL     1      37.631   5.622  55.028  1.00  0.00    -0.387 OA
ATOM     48  H   UNL     1      36.642   5.544  55.091  1.00  0.00     0.211 HD
ENDBRANCH  37  47
ENDBRANCH  31  32
ENDBRANCH   4  31
BRANCH   6  49
ATOM     49  N   UNL     1      34.888   2.329  59.125  1.00  0.00    -0.353 N 
ATOM     50  H   UNL     1      35.648   1.618  59.231  1.00  0.00     0.344 HD
ATOM     51  H   UNL     1      35.024   2.844  58.224  1.00  0.00     0.344 HD
ATOM     52  H   UNL     1      33.985   1.810  59.101  1.00  0.00     0.344 HD
ENDBRANCH   6  49
TORSDOF 17
ENDMDL
MODEL 8
REMARK VINA RESULT:    -5.899      3.092      6.014
REMARK INTER + INTRA:         -12.129
REMARK INTER:                  -9.946
REMARK INTRA:                  -2.183
REMARK UNBOUND:                -2.265
REMARK SMILES [NH3+]C[C@H]1O[C@H](O[C@H]2[C@H](O)[C@@H](O[C@H]3O[C@H](CO)[C@@H](O)[C@H]([NH3+])[C@H]3O)[C@H]([NH3+])C[C@@H]2[NH3+])[C@H](O)[C@@H](O)[C@@H]1O
REMARK SMILES IDX 10 1 8 2 23 3 7 4 25 5 26 6 11 7 12 8 19 9 21 10 17 11 14 12
REMARK SMILES IDX 13 13 20 14 22 18 18 20 15 22 16 23 9 25 24 27 6 31 5 32
REMARK SMILES IDX 4 33 28 34 3 35 30 36 32 37 29 38 2 40 1 41 31 45 33 47
REMARK SMILES IDX 27 49
REMARK H PARENT 20 15 20 16 20 17 22 19 18 21 16 24 9 26 24 28 24 29 24 30
REMARK H PARENT 29 39 1 42 1 43 1 44 31 46 33 48 27 50 27 51 27 52
ROOT
ATOM      1  C   UNL     1      36.788  -2.982  59.333  1.00  0.00     0.211 C 
ATOM      2  C   UNL     1      37.234  -1.517  59.134  1.00  0.00     0.184 C 
ATOM      3  C   UNL     1      37.032  -3.428  60.798  1.00  0.00     0.219 C 
ATOM      4  C   UNL     1      36.542  -0.558  60.128  1.00  0.00     0.211 C 
ATOM      5  C   UNL     1      36.357  -2.462  61.788  1.00  0.00     0.135 C 
ATOM      6  C   UNL     1      36.829  -1.010  61.583  1.00  0.00     0.219 C 
ENDROOT
BRANCH   1   7
ATOM      7  O   UNL     1      37.557  -3.808  58.464  1.00  0.00    -0.337 OA
BRANCH   7   8
ATOM      8  C   UNL     1      36.877  -4.088  57.247  1.00  0.00     0.286 C 
ATOM      9  C   UNL     1      38.127  -6.248  56.689  1.00  0.00     0.247 C 
ATOM     10  C   UNL     1      36.756  -5.614  57.015  1.00  0.00     0.231 C 
ATOM     11  C   UNL     1      38.811  -5.448  55.562  1.00  0.00     0.206 C 
ATOM     12  C   UNL     1      38.833  -3.951  55.942  1.00  0.00     0.182 C 
ATOM     13  O   UNL     1      37.516  -3.455  56.147  1.00  0.00    -0.341 OA
BRANCH   9  14
ATOM     14  N   UNL     1      37.967  -7.657  56.302  1.00  0.00    -0.351 N 
ATOM     15  H   UNL     1      38.174  -8.278  57.118  1.00  0.00     0.344 HD
ATOM     16  H   UNL     1      38.638  -7.898  55.536  1.00  0.00     0.344 HD
ATOM     17  H   UNL     1      36.991  -7.841  55.970  1.00  0.00     0.344 HD
ENDBRANCH   9  14
BRANCH  10  18
ATOM     18  O   UNL     1      36.152  -6.248  58.117  1.00  0.00    -0.382 OA
ATOM     19  H   UNL     1      36.607  -7.119  58.248  1.00  0.00     0.211 HD
ENDBRANCH  10  18
BRANCH  11  20
ATOM     20  O   UNL     1      40.125  -5.920  55.400  1.00  0.00    -0.384 OA
ATOM     21  H   UNL     1      40.580  -5.842  56.279  1.00  0.00     0.211 HD
ENDBRANCH  11  20
BRANCH  12  22
ATOM     22  C   UNL     1      39.514  -3.098  54.859  1.00  0.00     0.191 C 
BRANCH  22  23
ATOM     23  O   UNL     1      40.901  -3.026  55.063  1.00  0.00    -0.394 OA
ATOM     24  H   UNL     1      41.306  -3.763  54.533  1.00  0.00     0.210 HD
ENDBRANCH  22  23
ENDBRANCH  12  22
ENDBRANCH   7   8
ENDBRANCH   1   7
BRANCH   2  25
ATOM     25  O   UNL     1      36.913  -1.119  57.827  1.00  0.00    -0.387 OA
ATOM     26  H   UNL     1      35.923  -1.092  57.761  1.00  0.00     0.211 HD
ENDBRANCH   2  25
BRANCH   3  27
ATOM     27  N   UNL     1      36.537  -4.792  61.024  1.00  0.00    -0.353 N 
ATOM     28  H   UNL     1      36.011  -4.834  61.929  1.00  0.00     0.344 HD
ATOM     29  H   UNL     1      37.336  -5.459  61.095  1.00  0.00     0.344 HD
ATOM     30  H   UNL     1      35.903  -5.089  60.247  1.00  0.00     0.344 HD
ENDBRANCH   3  27
BRANCH   4  31
ATOM     31  O   UNL     1      37.059   0.755  59.919  1.00  0.00    -0.338 OA
BRANCH  31  32
ATOM     32  C   UNL     1      36.049   1.706  59.587  1.00  0.00     0.282 C 
ATOM     33  O   UNL     1      35.779   2.555  60.697  1.00  0.00    -0.338 OA
ATOM     34  C   UNL     1      36.445   2.527  58.335  1.00  0.00     0.202 C 
ATOM     35  C   UNL     1      36.905   3.352  61.046  1.00  0.00     0.207 C 
ATOM     36  C   UNL     1      37.612   3.477  58.640  1.00  0.00     0.179 C 
ATOM     37  C   UNL     1      37.283   4.310  59.893  1.00  0.00     0.180 C 
BRANCH  34  38
ATOM     38  O   UNL     1      36.803   1.676  57.278  1.00  0.00    -0.385 OA
ATOM     39  H   UNL     1      37.702   1.315  57.496  1.00  0.00     0.211 HD
ENDBRANCH  34  38
BRANCH  35  40
ATOM     40  C   UNL     1      36.616   4.094  62.369  1.00  0.00     0.294 C 
BRANCH  40  41
ATOM     41  N   UNL     1      37.797   4.215  63.228  1.00  0.00    -0.355 N 
ATOM     42  H   UNL     1      38.668   4.018  62.683  1.00  0.00     0.344 HD
ATOM     43  H   UNL     1      37.847   5.166  63.658  1.00  0.00     0.344 HD
ATOM     44  H   UNL     1      37.725   3.507  63.996  1.00  0.00     0.344 HD
ENDBRANCH  40  41
ENDBRANCH  35  40
BRANCH  36  45
ATOM     45  O   UNL     1      37.889   4.307  57.538  1.00  0.00    -0.387 OA
ATOM     46  H   UNL     1      37.081   4.323  56.961  1.00  0.00     0.211 HD
ENDBRANCH  36  45
BRANCH  37  47
ATOM     47  O   UNL     1      38.369   5.136  60.240  1.00  0.00    -0.387 OA
ATOM     48  H   UNL     1      38.205   6.034  59.848  1.00  0.00     0.211 HD
ENDBRANCH  37  47
ENDBRANCH  31  32
ENDBRANCH   4  31
BRANCH   6  49
ATOM     49  N   UNL     1      36.158  -0.134  62.552  1.00  0.00    -0.353 N 
ATOM     50  H   UNL     1      36.756  -0.013  63.402  1.00  0.00     0.344 HD
ATOM     51  H   UNL     1      35.233  -0.532  62.838  1.00  0.00     0.344 HD
ATOM     52  H   UNL     1      36.021   0.812  62.138  1.00  0.00     0.344 HD
ENDBRANCH   6  49
TORSDOF 17
ENDMDL
MODEL 9
REMARK VINA RESULT:    -5.880      2.218      3.085
REMARK INTER + INTRA:         -12.098
REMARK INTER:                 -10.266
REMARK INTRA:                  -1.832
REMARK UNBOUND:                -2.265
REMARK SMILES [NH3+]C[C@H]1O[C@H](O[C@H]2[C@H](O)[C@@H](O[C@H]3O[C@H](CO)[C@@H](O)[C@H]([NH3+])[C@H]3O)[C@H]([NH3+])C[C@@H]2[NH3+])[C@H](O)[C@@H](O)[C@@H]1O
REMARK SMILES IDX 10 1 8 2 23 3 7 4 25 5 26 6 11 7 12 8 19 9 21 10 17 11 14 12
REMARK SMILES IDX 13 13 20 14 22 18 18 20 15 22 16 23 9 25 24 27 6 31 5 32
REMARK SMILES IDX 4 33 28 34 3 35 30 36 32 37 29 38 2 40 1 41 31 45 33 47
REMARK SMILES IDX 27 49
REMARK H PARENT 20 15 20 16 20 17 22 19 18 21 16 24 9 26 24 28 24 29 24 30
REMARK H PARENT 29 39 1 42 1 43 1 44 31 46 33 48 27 50 27 51 27 52
ROOT
ATOM      1  C   UNL     1      34.711   1.057  58.540  1.00  0.00     0.211 C 
ATOM      2  C   UNL     1      35.915   1.964  58.205  1.00  0.00     0.184 C 
ATOM      3  C   UNL     1      33.620   1.862  59.291  1.00  0.00     0.219 C 
ATOM      4  C   UNL     1      35.496   3.213  57.399  1.00  0.00     0.211 C 
ATOM      5  C   UNL     1      33.215   3.117  58.496  1.00  0.00     0.135 C 
ATOM      6  C   UNL     1      34.429   4.015  58.187  1.00  0.00     0.219 C 
ENDROOT
BRANCH   1   7
ATOM      7  O   UNL     1      35.165  -0.000  59.380  1.00  0.00    -0.337 OA
BRANCH   7   8
ATOM      8  C   UNL     1      35.775   0.484  60.571  1.00  0.00     0.286 C 
ATOM      9  C   UNL     1      36.835  -1.730  61.291  1.00  0.00     0.247 C 
ATOM     10  C   UNL     1      37.097  -0.267  60.864  1.00  0.00     0.231 C 
ATOM     11  C   UNL     1      35.781  -1.758  62.415  1.00  0.00     0.206 C 
ATOM     12  C   UNL     1      34.540  -0.953  61.970  1.00  0.00     0.182 C 
ATOM     13  O   UNL     1      34.883   0.395  61.674  1.00  0.00    -0.341 OA
BRANCH   9  14
ATOM     14  N   UNL     1      38.082  -2.371  61.731  1.00  0.00    -0.351 N 
ATOM     15  H   UNL     1      37.888  -3.026  62.525  1.00  0.00     0.344 HD
ATOM     16  H   UNL     1      38.759  -1.649  62.069  1.00  0.00     0.344 HD
ATOM     17  H   UNL     1      38.520  -2.907  60.945  1.00  0.00     0.344 HD
ENDBRANCH   9  14
BRANCH  10  18
ATOM     18  O   UNL     1      37.969  -0.209  59.760  1.00  0.00    -0.382 OA
ATOM     19  H   UNL     1      37.451  -0.459  58.954  1.00  0.00     0.211 HD
ENDBRANCH  10  18
BRANCH  11  20
ATOM     20  O   UNL     1      35.420  -3.093  62.669  1.00  0.00    -0.384 OA
ATOM     21  H   UNL     1      34.444  -3.172  62.507  1.00  0.00     0.211 HD
ENDBRANCH  11  20
BRANCH  12  22
ATOM     22  C   UNL     1      33.444  -0.952  63.049  1.00  0.00     0.191 C 
BRANCH  22  23
ATOM     23  O   UNL     1      33.359   0.295  63.689  1.00  0.00    -0.394 OA
ATOM     24  H   UNL     1      32.455   0.658  63.490  1.00  0.00     0.210 HD
ENDBRANCH  22  23
ENDBRANCH  12  22
ENDBRANCH   7   8
ENDBRANCH   1   7
BRANCH   2  25
ATOM     25  O   UNL     1      36.839   1.229  57.445  1.00  0.00    -0.387 OA
ATOM     26  H   UNL     1      36.433   1.074  56.553  1.00  0.00     0.211 HD
ENDBRANCH   2  25
BRANCH   3  27
ATOM     27  N   UNL     1      32.433   1.035  59.545  1.00  0.00    -0.353 N 
ATOM     28  H   UNL     1      32.314   0.891  60.576  1.00  0.00     0.344 HD
ATOM     29  H   UNL     1      32.548   0.095  59.108  1.00  0.00     0.344 HD
ATOM     30  H   UNL     1      31.575   1.494  59.163  1.00  0.00     0.344 HD
ENDBRANCH   3  27
BRANCH   4  31
ATOM     31  O   UNL     1      36.652   4.022  57.192  1.00  0.00    -0.338 OA
BRANCH  31  32
ATOM     32  C   UNL     1      36.762   4.509  55.855  1.00  0.00     0.282 C 
ATOM     33  O   UNL     1      36.779   5.931  55.840  1.00  0.00    -0.338 OA
ATOM     34  C   UNL     1      38.009   3.923  55.148  1.00  0.00     0.202 C 
ATOM     35  C   UNL     1      37.927   6.457  56.495  1.00  0.00     0.207 C 
ATOM     36  C   UNL     1      39.304   4.497  55.743  1.00  0.00     0.179 C 
ATOM     37  C   UNL     1      39.223   6.035  55.764  1.00  0.00     0.180 C 
BRANCH  34  38
ATOM     38  O   UNL     1      38.029   2.524  55.255  1.00  0.00    -0.385 OA
ATOM     39  H   UNL     1      37.789   2.308  56.194  1.00  0.00     0.211 HD
ENDBRANCH  34  38
BRANCH  35  40
ATOM     40  C   UNL     1      37.786   7.990  56.622  1.00  0.00     0.294 C 
BRANCH  40  41
ATOM     41  N   UNL     1      38.667   8.723  55.707  1.00  0.00    -0.355 N 
ATOM     42  H   UNL     1      38.340   8.616  54.720  1.00  0.00     0.344 HD
ATOM     43  H   UNL     1      38.709   9.735  55.966  1.00  0.00     0.344 HD
ATOM     44  H   UNL     1      39.631   8.322  55.779  1.00  0.00     0.344 HD
ENDBRANCH  40  41
ENDBRANCH  35  40
BRANCH  36  45
ATOM     45  O   UNL     1      40.429   4.059  55.021  1.00  0.00    -0.387 OA
ATOM     46  H   UNL     1      40.426   3.065  55.030  1.00  0.00     0.211 HD
ENDBRANCH  36  45
BRANCH  37  47
ATOM     47  O   UNL     1      40.366   6.584  56.376  1.00  0.00    -0.387 OA
ATOM     48  H   UNL     1      40.492   7.501  56.015  1.00  0.00     0.211 HD
ENDBRANCH  37  47
ENDBRANCH  31  32
ENDBRANCH   4  31
BRANCH   6  49
ATOM     49  N   UNL     1      33.987   5.194  57.433  1.00  0.00    -0.353 N 
ATOM     50  H   UNL     1      34.686   5.432  56.693  1.00  0.00     0.344 HD
ATOM     51  H   UNL     1      33.864   6.019  58.065  1.00  0.00     0.344 HD
ATOM     52  H   UNL     1      33.088   4.987  56.948  1.00  0.00     0.344 HD
ENDBRANCH   6  49
TORSDOF 17
ENDMDL
