REMARK SMILES [NH3+]C[C@H]1O[C@H](O[C@H]2[C@H](O)[C@@H](O[C@H]3O[C@H](CO)[C@@H](O)[C@H]([NH3+])[C@H]3O)[C@H]([NH3+])C[C@@H]2[NH3+])[C@H](O)[C@@H](O)[C@@H]1O
REMARK SMILES IDX 10 1 8 2 23 3 7 4 25 5 26 6 11 7 12 8 19 9 21 10 17 11 14 12
REMARK SMILES IDX 13 13 20 14 22 18 18 20 15 22 16 23 9 25 24 27 6 31 5 32
REMARK SMILES IDX 4 33 28 34 3 35 30 36 32 37 29 38 2 40 1 41 31 45 33 47
REMARK SMILES IDX 27 49
REMARK H PARENT 20 15 20 16 20 17 22 19 18 21 16 24 9 26 24 28 24 29 24 30
REMARK H PARENT 29 39 1 42 1 43 1 44 31 46 33 48 27 50 27 51 27 52
ROOT
ATOM      1  C   UNL     1       1.392   1.218  -0.572  1.00  0.00     0.211 C 
ATOM      2  C   UNL     1       0.292   0.140  -0.461  1.00  0.00     0.184 C 
ATOM      3  C   UNL     1       1.088   2.182  -1.748  1.00  0.00     0.219 C 
ATOM      4  C   UNL     1      -1.117   0.758  -0.321  1.00  0.00     0.211 C 
ATOM      5  C   UNL     1      -0.323   2.784  -1.617  1.00  0.00     0.135 C 
ATOM      6  C   UNL     1      -1.405   1.691  -1.525  1.00  0.00     0.219 C 
ENDROOT
BRANCH   1   7
ATOM      7  O   UNL     1       2.635   0.568  -0.817  1.00  0.00    -0.337 OA
BRANCH   7   8
ATOM      8  C   UNL     1       3.641   0.966   0.107  1.00  0.00     0.286 C 
ATOM      9  C   UNL     1       5.396  -0.758  -0.592  1.00  0.00     0.247 C 
ATOM     10  C   UNL     1       5.056   0.746  -0.482  1.00  0.00     0.231 C 
ATOM     11  C   UNL     1       5.112  -1.451   0.755  1.00  0.00     0.206 C 
ATOM     12  C   UNL     1       3.673  -1.116   1.207  1.00  0.00     0.182 C 
ATOM     13  O   UNL     1       3.494   0.288   1.347  1.00  0.00    -0.341 OA
BRANCH   9  14
ATOM     14  N   UNL     1       6.800  -0.944  -0.986  1.00  0.00    -0.351 N 
ATOM     15  H   UNL     1       6.977  -0.484  -1.909  1.00  0.00     0.344 HD
ATOM     16  H   UNL     1       7.013  -1.963  -1.088  1.00  0.00     0.344 HD
ATOM     17  H   UNL     1       7.443  -0.532  -0.269  1.00  0.00     0.344 HD
ENDBRANCH   9  14
BRANCH  10  18
ATOM     18  O   UNL     1       5.194   1.390  -1.726  1.00  0.00    -0.382 OA
ATOM     19  H   UNL     1       4.575   0.950  -2.362  1.00  0.00     0.211 HD
ENDBRANCH  10  18
BRANCH  11  20
ATOM     20  O   UNL     1       5.251  -2.841   0.592  1.00  0.00    -0.384 OA
ATOM     21  H   UNL     1       5.646  -3.200   1.429  1.00  0.00     0.211 HD
ENDBRANCH  11  20
BRANCH  12  22
ATOM     22  C   UNL     1       3.324  -1.789   2.545  1.00  0.00     0.191 C 
BRANCH  22  23
ATOM     23  O   UNL     1       4.200  -1.383   3.564  1.00  0.00    -0.394 OA
ATOM     24  H   UNL     1       3.903  -0.480   3.854  1.00  0.00     0.210 HD
ENDBRANCH  22  23
ENDBRANCH  12  22
ENDBRANCH   7   8
ENDBRANCH   1   7
BRANCH   2  25
ATOM     25  O   UNL     1       0.548  -0.655   0.667  1.00  0.00    -0.387 OA
ATOM     26  H   UNL     1       0.539  -1.602   0.370  1.00  0.00     0.211 HD
ENDBRANCH   2  25
BRANCH   3  27
ATOM     27  N   UNL     1       2.081   3.262  -1.816  1.00  0.00    -0.353 N 
ATOM     28  H   UNL     1       1.843   3.915  -2.599  1.00  0.00     0.344 HD
ATOM     29  H   UNL     1       3.028   2.870  -2.011  1.00  0.00     0.344 HD
ATOM     30  H   UNL     1       2.104   3.799  -0.919  1.00  0.00     0.344 HD
ENDBRANCH   3  27
BRANCH   4  31
ATOM     31  O   UNL     1      -2.071  -0.302  -0.292  1.00  0.00    -0.338 OA
BRANCH  31  32
ATOM     32  C   UNL     1      -2.757  -0.402   0.955  1.00  0.00     0.282 C 
ATOM     33  O   UNL     1      -4.005   0.278   0.895  1.00  0.00    -0.338 OA
ATOM     34  C   UNL     1      -2.942  -1.882   1.373  1.00  0.00     0.202 C 
ATOM     35  C   UNL     1      -4.895  -0.322  -0.039  1.00  0.00     0.207 C 
ATOM     36  C   UNL     1      -3.951  -2.594   0.460  1.00  0.00     0.179 C 
ATOM     37  C   UNL     1      -5.248  -1.767   0.383  1.00  0.00     0.180 C 
BRANCH  34  38
ATOM     38  O   UNL     1      -1.717  -2.565   1.334  1.00  0.00    -0.385 OA
ATOM     39  H   UNL     1      -1.207  -2.279   2.137  1.00  0.00     0.211 HD
ENDBRANCH  34  38
BRANCH  35  40
ATOM     40  C   UNL     1      -6.143   0.573  -0.204  1.00  0.00     0.294 C 
BRANCH  40  41
ATOM     41  N   UNL     1      -6.865   0.786   1.054  1.00  0.00    -0.355 N 
ATOM     42  H   UNL     1      -7.299  -0.107   1.383  1.00  0.00     0.344 HD
ATOM     43  H   UNL     1      -6.226   1.169   1.787  1.00  0.00     0.344 HD
ATOM     44  H   UNL     1      -7.631   1.480   0.886  1.00  0.00     0.344 HD
ENDBRANCH  40  41
ENDBRANCH  35  40
BRANCH  36  45
ATOM     45  O   UNL     1      -4.209  -3.900   0.915  1.00  0.00    -0.387 OA
ATOM     46  H   UNL     1      -4.606  -3.831   1.823  1.00  0.00     0.211 HD
ENDBRANCH  36  45
BRANCH  37  47
ATOM     47  O   UNL     1      -6.162  -2.359  -0.509  1.00  0.00    -0.387 OA
ATOM     48  H   UNL     1      -5.740  -2.376  -1.409  1.00  0.00     0.211 HD
ENDBRANCH  37  47
ENDBRANCH  31  32
ENDBRANCH   4  31
BRANCH   6  49
ATOM     49  N   UNL     1      -2.727   2.319  -1.405  1.00  0.00    -0.353 N 
ATOM     50  H   UNL     1      -2.854   3.038  -2.154  1.00  0.00     0.344 HD
ATOM     51  H   UNL     1      -2.841   2.775  -0.470  1.00  0.00     0.344 HD
ATOM     52  H   UNL     1      -3.472   1.603  -1.540  1.00  0.00     0.344 HD
ENDBRANCH   6  49
TORSDOF 17
