
     RDKit          3D

 73 75  0  0  0  0  0  0  0  0999 V2000
    5.3964   -0.7578   -0.5915 C   0  0  2  0  0  0  0  0  0  0  0  0
    6.8002   -0.9437   -0.9855 N   0  0  0  0  0  4  0  0  0  0  0  0
    5.0559    0.7456   -0.4816 C   0  0  2  0  0  0  0  0  0  0  0  0
    5.1118   -1.4508    0.7546 C   0  0  1  0  0  0  0  0  0  0  0  0
    3.6412    0.9661    0.1071 C   0  0  1  0  0  0  0  0  0  0  0  0
    5.1941    1.3897   -1.7257 O   0  0  0  0  0  0  0  0  0  0  0  0
    3.6728   -1.1158    1.2067 C   0  0  2  0  0  0  0  0  0  0  0  0
    5.2511   -2.8410    0.5917 O   0  0  0  0  0  0  0  0  0  0  0  0
    2.6348    0.5677   -0.8165 O   0  0  0  0  0  0  0  0  0  0  0  0
    3.4938    0.2879    1.3471 O   0  0  0  0  0  0  0  0  0  0  0  0
    3.3237   -1.7889    2.5452 C   0  0  0  0  0  0  0  0  0  0  0  0
    1.3919    1.2182   -0.5721 C   0  0  2  0  0  0  0  0  0  0  0  0
    4.1997   -1.3827    3.5645 O   0  0  0  0  0  0  0  0  0  0  0  0
    0.2916    0.1400   -0.4613 C   0  0  2  0  0  0  0  0  0  0  0  0
    1.0884    2.1817   -1.7485 C   0  0  1  0  0  0  0  0  0  0  0  0
   -1.1171    0.7581   -0.3214 C   0  0  2  0  0  0  0  0  0  0  0  0
    0.5484   -0.6546    0.6668 O   0  0  0  0  0  0  0  0  0  0  0  0
   -0.3225    2.7840   -1.6172 C   0  0  0  0  0  0  0  0  0  0  0  0
    2.0808    3.2619   -1.8164 N   0  0  0  0  0  4  0  0  0  0  0  0
   -2.0711   -0.3020   -0.2922 O   0  0  0  0  0  0  0  0  0  0  0  0
   -1.4046    1.6912   -1.5250 C   0  0  2  0  0  0  0  0  0  0  0  0
   -2.7568   -0.4019    0.9546 C   0  0  1  0  0  0  0  0  0  0  0  0
   -2.7271    2.3187   -1.4052 N   0  0  0  0  0  4  0  0  0  0  0  0
   -4.0049    0.2778    0.8949 O   0  0  0  0  0  0  0  0  0  0  0  0
   -2.9416   -1.8823    1.3733 C   0  0  1  0  0  0  0  0  0  0  0  0
   -4.8953   -0.3218   -0.0394 C   0  0  2  0  0  0  0  0  0  0  0  0
   -3.9507   -2.5938    0.4600 C   0  0  2  0  0  0  0  0  0  0  0  0
   -1.7168   -2.5650    1.3343 O   0  0  0  0  0  0  0  0  0  0  0  0
   -6.1431    0.5730   -0.2043 C   0  0  0  0  0  0  0  0  0  0  0  0
   -5.2480   -1.7674    0.3831 C   0  0  2  0  0  0  0  0  0  0  0  0
   -4.2088   -3.8997    0.9148 O   0  0  0  0  0  0  0  0  0  0  0  0
   -6.8655    0.7856    1.0535 N   0  0  0  0  0  4  0  0  0  0  0  0
   -6.1618   -2.3591   -0.5092 O   0  0  0  0  0  0  0  0  0  0  0  0
    4.7443   -1.2169   -1.3699 H   0  0  0  0  0  0  0  0  0  0  0  0
    6.9766   -0.4839   -1.9089 H   0  0  0  0  0  0  0  0  0  0  0  0
    7.0127   -1.9629   -1.0883 H   0  0  0  0  0  0  0  0  0  0  0  0
    7.4427   -0.5317   -0.2687 H   0  0  0  0  0  0  0  0  0  0  0  0
    5.7815    1.2143    0.2216 H   0  0  0  0  0  0  0  0  0  0  0  0
    5.8368   -1.0663    1.5137 H   0  0  0  0  0  0  0  0  0  0  0  0
    3.5799    2.0606    0.3101 H   0  0  0  0  0  0  0  0  0  0  0  0
    4.5746    0.9503   -2.3620 H   0  0  0  0  0  0  0  0  0  0  0  0
    2.9656   -1.5279    0.4519 H   0  0  0  0  0  0  0  0  0  0  0  0
    5.6464   -3.2000    1.4294 H   0  0  0  0  0  0  0  0  0  0  0  0
    3.3832   -2.8935    2.4406 H   0  0  0  0  0  0  0  0  0  0  0  0
    2.2717   -1.5490    2.8224 H   0  0  0  0  0  0  0  0  0  0  0  0
    1.3728    1.8020    0.3815 H   0  0  0  0  0  0  0  0  0  0  0  0
    3.9031   -0.4802    3.8538 H   0  0  0  0  0  0  0  0  0  0  0  0
    0.3152   -0.4772   -1.3936 H   0  0  0  0  0  0  0  0  0  0  0  0
    1.1322    1.6021   -2.6993 H   0  0  0  0  0  0  0  0  0  0  0  0
   -1.1227    1.3995    0.5919 H   0  0  0  0  0  0  0  0  0  0  0  0
    0.5391   -1.6018    0.3705 H   0  0  0  0  0  0  0  0  0  0  0  0
   -0.5253    3.4217   -2.5057 H   0  0  0  0  0  0  0  0  0  0  0  0
   -0.3717    3.4348   -0.7146 H   0  0  0  0  0  0  0  0  0  0  0  0
    1.8427    3.9147   -2.5986 H   0  0  0  0  0  0  0  0  0  0  0  0
    3.0283    2.8699   -2.0111 H   0  0  0  0  0  0  0  0  0  0  0  0
    2.1038    3.7994   -0.9192 H   0  0  0  0  0  0  0  0  0  0  0  0
   -1.3799    1.0914   -2.4650 H   0  0  0  0  0  0  0  0  0  0  0  0
   -2.1788    0.0440    1.7967 H   0  0  0  0  0  0  0  0  0  0  0  0
   -2.8540    3.0382   -2.1538 H   0  0  0  0  0  0  0  0  0  0  0  0
   -2.8411    2.7754   -0.4702 H   0  0  0  0  0  0  0  0  0  0  0  0
   -3.4720    1.6027   -1.5400 H   0  0  0  0  0  0  0  0  0  0  0  0
   -3.3438   -1.9001    2.4148 H   0  0  0  0  0  0  0  0  0  0  0  0
   -4.4235   -0.3705   -1.0470 H   0  0  0  0  0  0  0  0  0  0  0  0
   -3.5093   -2.6721   -0.5600 H   0  0  0  0  0  0  0  0  0  0  0  0
   -1.2068   -2.2791    2.1374 H   0  0  0  0  0  0  0  0  0  0  0  0
   -6.8310    0.1284   -0.9584 H   0  0  0  0  0  0  0  0  0  0  0  0
   -5.8205    1.5600   -0.6044 H   0  0  0  0  0  0  0  0  0  0  0  0
   -5.7115   -1.7496    1.3938 H   0  0  0  0  0  0  0  0  0  0  0  0
   -4.6063   -3.8314    1.8226 H   0  0  0  0  0  0  0  0  0  0  0  0
   -7.2994   -0.1068    1.3825 H   0  0  0  0  0  0  0  0  0  0  0  0
   -6.2256    1.1688    1.7874 H   0  0  0  0  0  0  0  0  0  0  0  0
   -7.6310    1.4797    0.8857 H   0  0  0  0  0  0  0  0  0  0  0  0
   -5.7399   -2.3755   -1.4088 H   0  0  0  0  0  0  0  0  0  0  0  0
  1  2  1  0
  3  1  1  0
  1  4  1  0
  5  3  1  0
  3  6  1  0
  4  7  1  0
  4  8  1  0
  9  5  1  0
 10  5  1  0
  7 10  1  0
  7 11  1  0
 12  9  1  0
 11 13  1  0
 12 14  1  0
 15 12  1  0
 14 16  1  0
 14 17  1  0
 18 15  1  0
 15 19  1  0
 16 20  1  0
 16 21  1  0
 21 18  1  0
 20 22  1  0
 21 23  1  0
 24 22  1  0
 22 25  1  0
 26 24  1  0
 25 27  1  0
 25 28  1  0
 26 29  1  0
 30 26  1  0
 27 30  1  0
 27 31  1  0
 29 32  1  0
 30 33  1  0
  1 34  1  6
  2 35  1  0
  2 36  1  0
  2 37  1  0
  3 38  1  1
  4 39  1  1
  5 40  1  1
  6 41  1  0
  7 42  1  6
  8 43  1  0
 11 44  1  0
 11 45  1  0
 12 46  1  1
 13 47  1  0
 14 48  1  6
 15 49  1  6
 16 50  1  1
 17 51  1  0
 18 52  1  0
 18 53  1  0
 19 54  1  0
 19 55  1  0
 19 56  1  0
 21 57  1  6
 22 58  1  1
 23 59  1  0
 23 60  1  0
 23 61  1  0
 25 62  1  1
 26 63  1  6
 27 64  1  6
 28 65  1  0
 29 66  1  0
 29 67  1  0
 30 68  1  1
 31 69  1  0
 32 70  1  0
 32 71  1  0
 32 72  1  0
 33 73  1  0
M  CHG  4   2   1  19   1  23   1  32   1
M  END
>  <ScrubInfo>  (1) 
{"isomerGroup": 0, "isomerId": 0, "confId": 0, "nr_conformers:": 1, "nr_isomers:": 1}

$$$$
