
     RDKit          3D

 70 74  0  0  0  0  0  0  0  0999 V2000
   16.8820   56.0320    9.9890 C   0  0  0  0  0  0  0  0  0  0  0  0
   16.6880   55.0280   11.0950 C   0  0  0  0  0  0  0  0  0  0  0  0
   17.6940   54.0750   11.3150 C   0  0  0  0  0  0  0  0  0  0  0  0
   17.5400   53.0870   12.2910 C   0  0  0  0  0  0  0  0  0  0  0  0
   16.3710   53.0330   13.0620 C   0  0  0  0  0  0  0  0  0  0  0  0
   16.1640   51.9780   14.0100 N   0  0  0  0  0  0  0  0  0  0  0  0
   16.0280   52.2060   15.4210 C   0  0  0  0  0  0  0  0  0  0  0  0
   15.5980   53.3160   15.8390 O   0  0  0  0  0  0  0  0  0  0  0  0
   16.3550   51.1370   16.3870 C   0  0  0  0  0  0  0  0  0  0  0  0
   17.6360   51.0580   16.9550 C   0  0  0  0  0  0  0  0  0  0  0  0
   17.9570   50.0270   17.8430 C   0  0  0  0  0  0  0  0  0  0  0  0
   17.0070   49.0440   18.1580 C   0  0  0  0  0  0  0  0  0  0  0  0
   17.3640   47.8930   19.0730 C   0  0  0  0  0  0  0  0  0  0  0  0
   17.3390   48.2750   20.5090 N   0  0  2  0  0  4  0  0  0  0  0  0
   17.8000   47.1970   21.4190 C   0  0  0  0  0  0  0  0  0  0  0  0
   16.7710   46.0620   21.5520 C   0  0  0  0  0  0  0  0  0  0  0  0
   15.4680   46.5890   22.0030 N   0  0  2  0  0  4  0  0  0  0  0  0
   14.4860   45.4960   22.1090 C   0  0  0  0  0  0  0  0  0  0  0  0
   14.9750   47.6270   21.0740 C   0  0  0  0  0  0  0  0  0  0  0  0
   16.0020   48.7660   20.9170 C   0  0  0  0  0  0  0  0  0  0  0  0
   15.7260   49.1230   17.5890 C   0  0  0  0  0  0  0  0  0  0  0  0
   15.4000   50.1650   16.7180 C   0  0  0  0  0  0  0  0  0  0  0  0
   15.3700   53.9920   12.8620 C   0  0  0  0  0  0  0  0  0  0  0  0
   15.5320   55.0130   11.9120 C   0  0  0  0  0  0  0  0  0  0  0  0
   14.5080   56.0120   11.7990 N   0  0  0  0  0  0  0  0  0  0  0  0
   14.6870   57.3470   12.2910 C   0  0  0  0  0  0  0  0  0  0  0  0
   15.8270   57.6760   12.9540 N   0  0  0  0  0  0  0  0  0  0  0  0
   16.0230   58.9370   13.4150 C   0  0  0  0  0  0  0  0  0  0  0  0
   15.0450   59.9140   13.2250 C   0  0  0  0  0  0  0  0  0  0  0  0
   13.8650   59.5660   12.5480 C   0  0  0  0  0  0  0  0  0  0  0  0
   12.7610   60.5350   12.3150 C   0  0  0  0  0  0  0  0  0  0  0  0
   12.8630   61.8490   12.8060 C   0  0  0  0  0  0  0  0  0  0  0  0
   11.8510   62.7770   12.5570 C   0  0  0  0  0  0  0  0  0  0  0  0
   10.7390   62.3920   11.8120 C   0  0  0  0  0  0  0  0  0  0  0  0
   10.6490   61.1250   11.3330 N   0  0  0  0  0  0  0  0  0  0  0  0
   11.6180   60.1990   11.5620 C   0  0  0  0  0  0  0  0  0  0  0  0
   13.7320   58.2920   12.0870 N   0  0  0  0  0  0  0  0  0  0  0  0
   17.0737   57.0241   10.4238 H   0  0  0  0  0  0  0  0  0  0  0  0
   17.7388   55.7322    9.3677 H   0  0  0  0  0  0  0  0  0  0  0  0
   15.9752   56.0730    9.3677 H   0  0  0  0  0  0  0  0  0  0  0  0
   18.6139   54.1060   10.7126 H   0  0  0  0  0  0  0  0  0  0  0  0
   18.3391   52.3490   12.4547 H   0  0  0  0  0  0  0  0  0  0  0  0
   16.0150   51.0070   13.6510 H   0  0  0  0  0  0  0  0  0  0  0  0
   18.3936   51.8134   16.6994 H   0  0  0  0  0  0  0  0  0  0  0  0
   18.9584   49.9864   18.2965 H   0  0  0  0  0  0  0  0  0  0  0  0
   16.6422   47.0786   18.9126 H   0  0  0  0  0  0  0  0  0  0  0  0
   18.3900   47.5799   18.8295 H   0  0  0  0  0  0  0  0  0  0  0  0
   17.9990   49.0810   20.6310 H   0  0  0  0  0  0  0  0  0  0  0  0
   18.7380   46.7790   21.0247 H   0  0  0  0  0  0  0  0  0  0  0  0
   17.9432   47.6384   22.4163 H   0  0  0  0  0  0  0  0  0  0  0  0
   16.6441   45.5733   20.5747 H   0  0  0  0  0  0  0  0  0  0  0  0
   17.1365   45.3388   22.2959 H   0  0  0  0  0  0  0  0  0  0  0  0
   15.5830   47.0110   22.9550 H   0  0  0  0  0  0  0  0  0  0  0  0
   14.2915   45.2795   23.1698 H   0  0  0  0  0  0  0  0  0  0  0  0
   13.5485   45.7964   21.6182 H   0  0  0  0  0  0  0  0  0  0  0  0
   14.8847   44.5959   21.6182 H   0  0  0  0  0  0  0  0  0  0  0  0
   14.7918   47.1705   20.0901 H   0  0  0  0  0  0  0  0  0  0  0  0
   14.0457   48.0492   21.4840 H   0  0  0  0  0  0  0  0  0  0  0  0
   15.6360   49.4676   20.1529 H   0  0  0  0  0  0  0  0  0  0  0  0
   16.1109   49.2540   21.8968 H   0  0  0  0  0  0  0  0  0  0  0  0
   14.9732   48.3583   17.8310 H   0  0  0  0  0  0  0  0  0  0  0  0
   14.3886   50.2235   16.2893 H   0  0  0  0  0  0  0  0  0  0  0  0
   14.4457   53.9447   13.4565 H   0  0  0  0  0  0  0  0  0  0  0  0
   13.5310   55.6920   11.6070 H   0  0  0  0  0  0  0  0  0  0  0  0
   16.9558   59.1899   13.9402 H   0  0  0  0  0  0  0  0  0  0  0  0
   15.1956   60.9376   13.5986 H   0  0  0  0  0  0  0  0  0  0  0  0
   13.7462   62.1471   13.3901 H   0  0  0  0  0  0  0  0  0  0  0  0
   11.9308   63.8030   12.9455 H   0  0  0  0  0  0  0  0  0  0  0  0
    9.9339   63.1144   11.6118 H   0  0  0  0  0  0  0  0  0  0  0  0
   11.5092   59.1820   11.1573 H   0  0  0  0  0  0  0  0  0  0  0  0
  1  2  1  0
  2  3  2  0
  3  4  1  0
  4  5  2  0
  5  6  1  0
  6  7  1  0
  7  8  2  0
  7  9  1  0
  9 10  2  0
 10 11  1  0
 11 12  2  0
 12 13  1  0
 13 14  1  0
 14 15  1  0
 15 16  1  0
 16 17  1  0
 17 18  1  0
 17 19  1  0
 19 20  1  0
 12 21  1  0
 21 22  2  0
  5 23  1  0
 23 24  2  0
 24 25  1  0
 25 26  1  0
 26 27  2  0
 27 28  1  0
 28 29  2  0
 29 30  1  0
 30 31  1  0
 31 32  2  0
 32 33  1  0
 33 34  2  0
 34 35  1  0
 35 36  2  0
 30 37  2  0
 24  2  1  0
 37 26  1  0
 22  9  1  0
 36 31  1  0
 20 14  1  0
  1 38  1  0
  1 39  1  0
  1 40  1  0
  3 41  1  0
  4 42  1  0
  6 43  1  0
 10 44  1  0
 11 45  1  0
 13 46  1  0
 13 47  1  0
 14 48  1  1
 15 49  1  0
 15 50  1  0
 16 51  1  0
 16 52  1  0
 17 53  1  6
 18 54  1  0
 18 55  1  0
 18 56  1  0
 19 57  1  0
 19 58  1  0
 20 59  1  0
 20 60  1  0
 21 61  1  0
 22 62  1  0
 23 63  1  0
 25 64  1  0
 28 65  1  0
 29 66  1  0
 32 67  1  0
 33 68  1  0
 34 69  1  0
 36 70  1  0
M  CHG  2  14   1  17   1
M  END
>  <meeko>  (1) 
{"is_sidechain": [false], "free_energy": -14.349, "intermolecular_energy": -16.437, "internal_energy": -1.152}

$$$$
