MODEL 1
REMARK VINA RESULT:   -14.349      0.000      0.000
REMARK INTER + INTRA:         -17.590
REMARK INTER:                 -16.437
REMARK INTRA:                  -1.152
REMARK CONF_INDEPENDENT:        2.088
REMARK UNBOUND:                -1.152
REMARK SMILES Cc1ccc(NC(=O)c2ccc(C[N@H+]3CC[N@@H+](C)CC3)cc2)cc1Nc1nccc(-c2cccnc2)n1
REMARK SMILES IDX 7 1 6 2 8 3 9 5 12 6 11 7 21 8 10 9 22 10 13 11 14 12 19 13
REMARK SMILES IDX 17 14 20 15 16 16 15 17 18 18 5 21 23 22 4 23 24 24 3 25
REMARK SMILES IDX 2 26 1 27 25 28 26 30 27 31 37 32 28 33 30 34 29 35 31 36
REMARK SMILES IDX 36 37 32 38 35 39 33 40 34 41
REMARK H PARENT 6 4 17 19 14 20 25 29
ROOT
ATOM      1  C   UNL     1      16.028  52.206  15.421  1.00  0.00     0.255 C 
ATOM      2  N   UNL     1      16.164  51.978  14.010  1.00  0.00    -0.322 N 
ATOM      3  O   UNL     1      15.598  53.316  15.839  1.00  0.00    -0.269 OA
ATOM      4  H   UNL     1      16.015  51.007  13.651  1.00  0.00     0.170 HD
ENDROOT
BRANCH   1   5
ATOM      5  C   UNL     1      16.355  51.137  16.387  1.00  0.00     0.040 A 
ATOM      6  C   UNL     1      17.007  49.044  18.158  1.00  0.00     0.006 A 
ATOM      7  C   UNL     1      17.957  50.027  17.843  1.00  0.00     0.010 A 
ATOM      8  C   UNL     1      15.726  49.123  17.589  1.00  0.00     0.010 A 
ATOM      9  C   UNL     1      17.636  51.058  16.955  1.00  0.00     0.014 A 
ATOM     10  C   UNL     1      15.400  50.165  16.718  1.00  0.00     0.014 A 
BRANCH   6  11
ATOM     11  C   UNL     1      17.364  47.893  19.073  1.00  0.00     0.299 C 
BRANCH  11  12
ATOM     12  N   UNL     1      17.339  48.275  20.509  1.00  0.00    -0.322 N 
ATOM     13  C   UNL     1      14.975  47.627  21.074  1.00  0.00     0.324 C 
ATOM     14  N   UNL     1      15.468  46.589  22.003  1.00  0.00    -0.328 N 
ATOM     15  C   UNL     1      16.002  48.766  20.917  1.00  0.00     0.324 C 
ATOM     16  C   UNL     1      16.771  46.062  21.552  1.00  0.00     0.324 C 
ATOM     17  C   UNL     1      17.800  47.197  21.419  1.00  0.00     0.324 C 
ATOM     18  C   UNL     1      14.486  45.496  22.109  1.00  0.00     0.333 C 
ATOM     19  H   UNL     1      15.583  47.011  22.955  1.00  0.00     0.348 HD
ATOM     20  H   UNL     1      17.999  49.081  20.631  1.00  0.00     0.348 HD
ENDBRANCH  11  12
ENDBRANCH   6  11
ENDBRANCH   1   5
BRANCH   2  21
ATOM     21  C   UNL     1      16.371  53.033  13.062  1.00  0.00     0.043 A 
ATOM     22  C   UNL     1      15.370  53.992  12.862  1.00  0.00     0.052 A 
ATOM     23  C   UNL     1      17.540  53.087  12.291  1.00  0.00     0.026 A 
ATOM     24  C   UNL     1      15.532  55.013  11.912  1.00  0.00     0.046 A 
ATOM     25  C   UNL     1      17.694  54.075  11.315  1.00  0.00     0.008 A 
ATOM     26  C   UNL     1      16.688  55.028  11.095  1.00  0.00    -0.027 A 
ATOM     27  C   UNL     1      16.882  56.032   9.989  1.00  0.00     0.046 C 
BRANCH  24  28
ATOM     28  N   UNL     1      14.508  56.012  11.799  1.00  0.00    -0.324 N 
ATOM     29  H   UNL     1      13.531  55.692  11.607  1.00  0.00     0.170 HD
BRANCH  28  30
ATOM     30  C   UNL     1      14.687  57.347  12.291  1.00  0.00     0.227 A 
ATOM     31  N   UNL     1      15.827  57.676  12.954  1.00  0.00    -0.221 NA
ATOM     32  N   UNL     1      13.732  58.292  12.087  1.00  0.00    -0.213 NA
ATOM     33  C   UNL     1      16.023  58.937  13.415  1.00  0.00     0.117 A 
ATOM     34  C   UNL     1      13.865  59.566  12.548  1.00  0.00     0.077 A 
ATOM     35  C   UNL     1      15.045  59.914  13.225  1.00  0.00     0.049 A 
BRANCH  34  36
ATOM     36  C   UNL     1      12.761  60.535  12.315  1.00  0.00     0.019 A 
ATOM     37  C   UNL     1      11.618  60.199  11.562  1.00  0.00     0.121 A 
ATOM     38  C   UNL     1      12.863  61.849  12.806  1.00  0.00     0.013 A 
ATOM     39  N   UNL     1      10.649  61.125  11.333  1.00  0.00    -0.264 NA
ATOM     40  C   UNL     1      11.851  62.777  12.557  1.00  0.00     0.021 A 
ATOM     41  C   UNL     1      10.739  62.392  11.812  1.00  0.00     0.111 A 
ENDBRANCH  34  36
ENDBRANCH  28  30
ENDBRANCH  24  28
ENDBRANCH   2  21
TORSDOF 7
ENDMDL
