REMARK SMILES Cc1ccc(NC(=O)c2ccc(C[N@H+]3CC[N@@H+](C)CC3)cc2)cc1Nc1nccc(-c2cccnc2)n1
REMARK SMILES IDX 7 1 6 2 8 3 9 5 12 6 11 7 21 8 10 9 22 10 13 11 14 12 19 13
REMARK SMILES IDX 17 14 20 15 16 16 15 17 18 18 5 21 23 22 4 23 24 24 3 25
REMARK SMILES IDX 2 26 1 27 25 28 26 30 27 31 37 32 28 33 30 34 29 35 31 36
REMARK SMILES IDX 36 37 32 38 35 39 33 40 34 41
REMARK H PARENT 6 4 17 19 14 20 25 29
ROOT
ATOM      1  C   UNL     1       0.952  -0.131  -2.692  1.00  0.00     0.255 C 
ATOM      2  N   UNL     1       0.765  -0.707  -3.993  1.00  0.00    -0.322 N 
ATOM      3  O   UNL     1       0.023   0.539  -2.162  1.00  0.00    -0.269 OA
ATOM      4  H   UNL     1       1.244  -1.612  -4.205  1.00  0.00     0.170 HD
ENDROOT
BRANCH   1   5
ATOM      5  C   UNL     1       2.212  -0.346  -1.952  1.00  0.00     0.040 A 
ATOM      6  C   UNL     1       4.631  -0.662  -0.540  1.00  0.00     0.006 A 
ATOM      7  C   UNL     1       3.421  -0.510   0.153  1.00  0.00     0.010 A 
ATOM      8  C   UNL     1       4.620  -0.665  -1.944  1.00  0.00     0.010 A 
ATOM      9  C   UNL     1       2.223  -0.342  -0.548  1.00  0.00     0.014 A 
ATOM     10  C   UNL     1       3.420  -0.517  -2.644  1.00  0.00     0.014 A 
BRANCH   6  11
ATOM     11  C   UNL     1       5.938  -0.787   0.211  1.00  0.00     0.299 C 
BRANCH  11  12
ATOM     12  N   UNL     1       6.326   0.473   0.898  1.00  0.00    -0.322 N 
ATOM     13  C   UNL     1       8.826   0.195   0.905  1.00  0.00     0.324 C 
ATOM     14  N   UNL     1       8.971   1.369   0.019  1.00  0.00    -0.328 N 
ATOM     15  C   UNL     1       7.532   0.285   1.738  1.00  0.00     0.324 C 
ATOM     16  C   UNL     1       7.792   1.510  -0.858  1.00  0.00     0.324 C 
ATOM     17  C   UNL     1       6.505   1.622  -0.024  1.00  0.00     0.324 C 
ATOM     18  C   UNL     1      10.195   1.244  -0.791  1.00  0.00     0.333 C 
ATOM     19  H   UNL     1       9.062   2.231   0.607  1.00  0.00     0.348 HD
ATOM     20  H   UNL     1       5.546   0.725   1.553  1.00  0.00     0.348 HD
ENDBRANCH  11  12
ENDBRANCH   6  11
ENDBRANCH   1   5
BRANCH   2  21
ATOM     21  C   UNL     1      -0.140  -0.168  -4.966  1.00  0.00     0.043 A 
ATOM     22  C   UNL     1      -0.852  -1.034  -5.805  1.00  0.00     0.052 A 
ATOM     23  C   UNL     1      -0.280   1.217  -5.127  1.00  0.00     0.026 A 
ATOM     24  C   UNL     1      -1.715  -0.531  -6.792  1.00  0.00     0.046 A 
ATOM     25  C   UNL     1      -1.105   1.728  -6.132  1.00  0.00     0.008 A 
ATOM     26  C   UNL     1      -1.808   0.868  -6.990  1.00  0.00    -0.027 A 
ATOM     27  C   UNL     1      -2.634   1.474  -8.093  1.00  0.00     0.046 C 
BRANCH  24  28
ATOM     28  N   UNL     1      -2.477  -1.462  -7.575  1.00  0.00    -0.324 N 
ATOM     29  H   UNL     1      -1.977  -2.289  -7.975  1.00  0.00     0.170 HD
BRANCH  28  30
ATOM     30  C   UNL     1      -3.909  -1.510  -7.523  1.00  0.00     0.227 A 
ATOM     31  N   UNL     1      -4.572  -2.550  -8.094  1.00  0.00    -0.221 NA
ATOM     32  N   UNL     1      -4.610  -0.531  -6.893  1.00  0.00    -0.213 NA
ATOM     33  C   UNL     1      -5.926  -2.622  -8.044  1.00  0.00     0.117 A 
ATOM     34  C   UNL     1      -5.970  -0.540  -6.833  1.00  0.00     0.077 A 
ATOM     35  C   UNL     1      -6.660  -1.617  -7.413  1.00  0.00     0.049 A 
BRANCH  34  36
ATOM     36  C   UNL     1      -6.668   0.586  -6.156  1.00  0.00     0.019 A 
ATOM     37  C   UNL     1      -8.010   0.912  -6.439  1.00  0.00     0.121 A 
ATOM     38  C   UNL     1      -5.971   1.398  -5.243  1.00  0.00     0.013 A 
ATOM     39  N   UNL     1      -8.601   1.976  -5.833  1.00  0.00    -0.264 NA
ATOM     40  C   UNL     1      -6.605   2.482  -4.635  1.00  0.00     0.021 A 
ATOM     41  C   UNL     1      -7.935   2.757  -4.944  1.00  0.00     0.111 A 
ENDBRANCH  34  36
ENDBRANCH  28  30
ENDBRANCH  24  28
ENDBRANCH   2  21
TORSDOF 7
