
     RDKit          3D

 70 74  0  0  0  0  0  0  0  0999 V2000
    8.8263    0.1952    0.9052 C   0  0  0  0  0  0  0  0  0  0  0  0
    8.9710    1.3685    0.0195 N   0  0  0  0  0  4  0  0  0  0  0  0
   10.1951    1.2444   -0.7909 C   0  0  0  0  0  0  0  0  0  0  0  0
    7.7917    1.5096   -0.8577 C   0  0  0  0  0  0  0  0  0  0  0  0
    7.5321    0.2854    1.7385 C   0  0  0  0  0  0  0  0  0  0  0  0
    6.3257    0.4735    0.8977 N   0  0  0  0  0  4  0  0  0  0  0  0
    5.9376   -0.7874    0.2110 C   0  0  0  0  0  0  0  0  0  0  0  0
    6.5054    1.6221   -0.0241 C   0  0  0  0  0  0  0  0  0  0  0  0
    4.6309   -0.6619   -0.5404 C   0  0  0  0  0  0  0  0  0  0  0  0
    3.4211   -0.5101    0.1526 C   0  0  0  0  0  0  0  0  0  0  0  0
    4.6198   -0.6652   -1.9444 C   0  0  0  0  0  0  0  0  0  0  0  0
    2.2227   -0.3415   -0.5484 C   0  0  0  0  0  0  0  0  0  0  0  0
    3.4196   -0.5174   -2.6436 C   0  0  0  0  0  0  0  0  0  0  0  0
    2.2116   -0.3456   -1.9520 C   0  0  0  0  0  0  0  0  0  0  0  0
    0.9516   -0.1309   -2.6923 C   0  0  0  0  0  0  0  0  0  0  0  0
    0.7649   -0.7071   -3.9926 N   0  0  0  0  0  0  0  0  0  0  0  0
    0.0230    0.5387   -2.1617 O   0  0  0  0  0  0  0  0  0  0  0  0
   -0.1399   -0.1676   -4.9663 C   0  0  0  0  0  0  0  0  0  0  0  0
   -0.8523   -1.0338   -5.8053 C   0  0  0  0  0  0  0  0  0  0  0  0
   -0.2803    1.2174   -5.1273 C   0  0  0  0  0  0  0  0  0  0  0  0
   -1.7150   -0.5315   -6.7920 C   0  0  0  0  0  0  0  0  0  0  0  0
   -1.1051    1.7285   -6.1321 C   0  0  0  0  0  0  0  0  0  0  0  0
   -1.8075    0.8684   -6.9905 C   0  0  0  0  0  0  0  0  0  0  0  0
   -2.4773   -1.4624   -7.5749 N   0  0  0  0  0  0  0  0  0  0  0  0
   -2.6340    1.4745   -8.0930 C   0  0  0  0  0  0  0  0  0  0  0  0
   -3.9094   -1.5102   -7.5230 C   0  0  0  0  0  0  0  0  0  0  0  0
   -4.5719   -2.5496   -8.0939 N   0  0  0  0  0  0  0  0  0  0  0  0
   -4.6101   -0.5313   -6.8927 N   0  0  0  0  0  0  0  0  0  0  0  0
   -5.9259   -2.6221   -8.0442 C   0  0  0  0  0  0  0  0  0  0  0  0
   -5.9695   -0.5400   -6.8334 C   0  0  0  0  0  0  0  0  0  0  0  0
   -6.6597   -1.6175   -7.4133 C   0  0  0  0  0  0  0  0  0  0  0  0
   -6.6685    0.5860   -6.1562 C   0  0  0  0  0  0  0  0  0  0  0  0
   -8.0099    0.9120   -6.4386 C   0  0  0  0  0  0  0  0  0  0  0  0
   -5.9712    1.3980   -5.2428 C   0  0  0  0  0  0  0  0  0  0  0  0
   -8.6011    1.9757   -5.8330 N   0  0  0  0  0  0  0  0  0  0  0  0
   -6.6046    2.4818   -4.6347 C   0  0  0  0  0  0  0  0  0  0  0  0
   -7.9354    2.7568   -4.9444 C   0  0  0  0  0  0  0  0  0  0  0  0
    9.6870    0.1452    1.6083 H   0  0  0  0  0  0  0  0  0  0  0  0
    8.8361   -0.7494    0.3191 H   0  0  0  0  0  0  0  0  0  0  0  0
    9.0623    2.2313    0.6072 H   0  0  0  0  0  0  0  0  0  0  0  0
   11.0912    1.1720   -0.1351 H   0  0  0  0  0  0  0  0  0  0  0  0
   10.1547    0.3422   -1.4415 H   0  0  0  0  0  0  0  0  0  0  0  0
   10.3240    2.1423   -1.4349 H   0  0  0  0  0  0  0  0  0  0  0  0
    7.7149    0.6537   -1.5618 H   0  0  0  0  0  0  0  0  0  0  0  0
    7.8830    2.4335   -1.4705 H   0  0  0  0  0  0  0  0  0  0  0  0
    7.6283    1.1432    2.4444 H   0  0  0  0  0  0  0  0  0  0  0  0
    7.4362   -0.6301    2.3642 H   0  0  0  0  0  0  0  0  0  0  0  0
    5.5463    0.7246    1.5526 H   0  0  0  0  0  0  0  0  0  0  0  0
    5.8158   -1.6015    0.9593 H   0  0  0  0  0  0  0  0  0  0  0  0
    6.7382   -1.1288   -0.4800 H   0  0  0  0  0  0  0  0  0  0  0  0
    5.6346    1.7354   -0.7071 H   0  0  0  0  0  0  0  0  0  0  0  0
    6.5493    2.5642    0.5678 H   0  0  0  0  0  0  0  0  0  0  0  0
    3.4069   -0.5146    1.2335 H   0  0  0  0  0  0  0  0  0  0  0  0
    5.5428   -0.7639   -2.4992 H   0  0  0  0  0  0  0  0  0  0  0  0
    1.3012   -0.2166    0.0046 H   0  0  0  0  0  0  0  0  0  0  0  0
    3.4421   -0.5013   -3.7249 H   0  0  0  0  0  0  0  0  0  0  0  0
    1.2444   -1.6124   -4.2053 H   0  0  0  0  0  0  0  0  0  0  0  0
   -0.7563   -2.1039   -5.6735 H   0  0  0  0  0  0  0  0  0  0  0  0
    0.2747    1.9044   -4.5014 H   0  0  0  0  0  0  0  0  0  0  0  0
   -1.1784    2.8029   -6.2539 H   0  0  0  0  0  0  0  0  0  0  0  0
   -1.9774   -2.2890   -7.9752 H   0  0  0  0  0  0  0  0  0  0  0  0
   -2.8578    0.7398   -8.8943 H   0  0  0  0  0  0  0  0  0  0  0  0
   -3.5839    1.8689   -7.6745 H   0  0  0  0  0  0  0  0  0  0  0  0
   -2.0782    2.3136   -8.5646 H   0  0  0  0  0  0  0  0  0  0  0  0
   -6.4355   -3.4639   -8.4934 H   0  0  0  0  0  0  0  0  0  0  0  0
   -7.7365   -1.7040   -7.3637 H   0  0  0  0  0  0  0  0  0  0  0  0
   -8.5859    0.3471   -7.1557 H   0  0  0  0  0  0  0  0  0  0  0  0
   -4.9359    1.1937   -4.9934 H   0  0  0  0  0  0  0  0  0  0  0  0
   -6.0657    3.1085   -3.9327 H   0  0  0  0  0  0  0  0  0  0  0  0
   -8.4396    3.5935   -4.4811 H   0  0  0  0  0  0  0  0  0  0  0  0
  1  2  1  0
  2  3  1  0
  2  4  1  0
  5  1  1  0
  6  5  1  0
  7  6  1  0
  6  8  1  0
  9  7  1  0
  4  8  1  0
 10  9  2  0
  9 11  1  0
 12 10  1  0
 11 13  2  0
 14 12  2  0
 13 14  1  0
 15 14  1  0
 16 15  1  0
 15 17  2  0
 18 16  1  0
 19 18  2  0
 18 20  1  0
 21 19  1  0
 20 22  2  0
 23 21  2  0
 21 24  1  0
 22 23  1  0
 25 23  1  0
 24 26  1  0
 26 27  2  0
 28 26  1  0
 27 29  1  0
 30 28  2  0
 29 31  2  0
 31 30  1  0
 30 32  1  0
 32 33  2  0
 34 32  1  0
 33 35  1  0
 36 34  2  0
 35 37  2  0
 37 36  1  0
  1 38  1  0
  1 39  1  0
  2 40  1  0
  3 41  1  0
  3 42  1  0
  3 43  1  0
  4 44  1  0
  4 45  1  0
  5 46  1  0
  5 47  1  0
  6 48  1  0
  7 49  1  0
  7 50  1  0
  8 51  1  0
  8 52  1  0
 10 53  1  0
 11 54  1  0
 12 55  1  0
 13 56  1  0
 16 57  1  0
 19 58  1  0
 20 59  1  0
 22 60  1  0
 24 61  1  0
 25 62  1  0
 25 63  1  0
 25 64  1  0
 29 65  1  0
 31 66  1  0
 33 67  1  0
 34 68  1  0
 36 69  1  0
 37 70  1  0
M  CHG  2   2   1   6   1
M  END
>  <ScrubInfo>  (1) 
{"isomerGroup": 0, "isomerId": 0, "confId": 0, "nr_conformers:": 1, "nr_isomers:": 1}

$$$$
