MODEL 1
REMARK VINA RESULT:   -12.315      0.000      0.000
REMARK INTER + INTRA:         -17.784
REMARK INTER:                 -17.354
REMARK INTRA:                  -0.430
REMARK UNBOUND:                -0.430
REMARK SMILES Cc1ccc(NC(=O)c2ccc(C[N@H+]3CC[N@@H+](C)CC3)cc2)cc1Nc1nccc(-c2cccnc2)n1
REMARK SMILES IDX 7 1 6 2 8 3 9 5 12 6 11 7 21 8 10 9 22 10 13 11 14 12 19 13
REMARK SMILES IDX 17 14 20 15 16 16 15 17 18 18 5 21 23 22 4 23 24 24 3 25
REMARK SMILES IDX 2 26 1 27 25 28 26 30 27 31 37 32 28 33 30 34 29 35 31 36
REMARK SMILES IDX 36 37 32 38 35 39 33 40 34 41
REMARK H PARENT 6 4 17 19 14 20 25 29
ROOT
ATOM      1  C   UNL     1      15.477  51.884  15.492  1.00  0.00     0.255 C 
ATOM      2  N   UNL     1      15.607  51.814  14.065  1.00  0.00    -0.322 N 
ATOM      3  O   UNL     1      15.303  53.001  16.053  1.00  0.00    -0.269 OA
ATOM      4  H   UNL     1      15.248  50.961  13.578  1.00  0.00     0.170 HD
ENDROOT
BRANCH   1   5
ATOM      5  C   UNL     1      15.510  50.654  16.308  1.00  0.00     0.040 A 
ATOM      6  C   UNL     1      15.587  48.359  17.944  1.00  0.00     0.006 A 
ATOM      7  C   UNL     1      14.367  48.996  17.673  1.00  0.00     0.010 A 
ATOM      8  C   UNL     1      16.767  48.873  17.381  1.00  0.00     0.010 A 
ATOM      9  C   UNL     1      14.331  50.140  16.872  1.00  0.00     0.014 A 
ATOM     10  C   UNL     1      16.728  50.005  16.564  1.00  0.00     0.014 A 
BRANCH   6  11
ATOM     11  C   UNL     1      15.642  47.154  18.856  1.00  0.00     0.299 C 
BRANCH  11  12
ATOM     12  N   UNL     1      15.803  47.526  20.286  1.00  0.00    -0.322 N 
ATOM     13  C   UNL     1      16.075  45.235  21.289  1.00  0.00     0.324 C 
ATOM     14  N   UNL     1      17.457  45.564  21.695  1.00  0.00    -0.328 N 
ATOM     15  C   UNL     1      15.210  46.507  21.184  1.00  0.00     0.324 C 
ATOM     16  C   UNL     1      18.061  46.532  20.758  1.00  0.00     0.324 C 
ATOM     17  C   UNL     1      17.208  47.808  20.672  1.00  0.00     0.324 C 
ATOM     18  C   UNL     1      18.272  44.338  21.755  1.00  0.00     0.333 C 
ATOM     19  H   UNL     1      17.440  45.985  22.654  1.00  0.00     0.348 HD
ATOM     20  H   UNL     1      15.260  48.410  20.443  1.00  0.00     0.348 HD
ENDBRANCH  11  12
ENDBRANCH   6  11
ENDBRANCH   1   5
BRANCH   2  21
ATOM     21  C   UNL     1      16.089  52.904  13.267  1.00  0.00     0.043 A 
ATOM     22  C   UNL     1      15.212  53.931  12.895  1.00  0.00     0.052 A 
ATOM     23  C   UNL     1      17.412  52.928  12.808  1.00  0.00     0.026 A 
ATOM     24  C   UNL     1      15.649  54.990  12.082  1.00  0.00     0.046 A 
ATOM     25  C   UNL     1      17.846  53.955  11.966  1.00  0.00     0.008 A 
ATOM     26  C   UNL     1      16.970  54.978  11.572  1.00  0.00    -0.027 A 
ATOM     27  C   UNL     1      17.475  56.025  10.616  1.00  0.00     0.046 C 
BRANCH  24  28
ATOM     28  N   UNL     1      14.731  56.054  11.792  1.00  0.00    -0.324 N 
ATOM     29  H   UNL     1      13.794  55.800  11.402  1.00  0.00     0.170 HD
BRANCH  28  30
ATOM     30  C   UNL     1      14.890  57.369  12.341  1.00  0.00     0.227 A 
ATOM     31  N   UNL     1      16.021  57.685  13.024  1.00  0.00    -0.221 NA
ATOM     32  N   UNL     1      13.924  58.310  12.169  1.00  0.00    -0.213 NA
ATOM     33  C   UNL     1      16.197  58.928  13.540  1.00  0.00     0.117 A 
ATOM     34  C   UNL     1      14.037  59.565  12.684  1.00  0.00     0.077 A 
ATOM     35  C   UNL     1      15.208  59.900  13.384  1.00  0.00     0.049 A 
BRANCH  34  36
ATOM     36  C   UNL     1      12.922  60.529  12.485  1.00  0.00     0.019 A 
ATOM     37  C   UNL     1      11.698  60.145  11.898  1.00  0.00     0.121 A 
ATOM     38  C   UNL     1      13.090  61.881  12.833  1.00  0.00     0.013 A 
ATOM     39  N   UNL     1      10.718  61.064  11.691  1.00  0.00    -0.264 NA
ATOM     40  C   UNL     1      12.064  62.801  12.611  1.00  0.00     0.021 A 
ATOM     41  C   UNL     1      10.872  62.368  12.035  1.00  0.00     0.111 A 
ENDBRANCH  34  36
ENDBRANCH  28  30
ENDBRANCH  24  28
ENDBRANCH   2  21
TORSDOF 7
ENDMDL
MODEL 2
REMARK VINA RESULT:   -10.031      3.556     12.176
REMARK INTER + INTRA:         -14.566
REMARK INTER:                 -13.425
REMARK INTRA:                  -1.141
REMARK UNBOUND:                -0.430
REMARK SMILES Cc1ccc(NC(=O)c2ccc(C[N@H+]3CC[N@@H+](C)CC3)cc2)cc1Nc1nccc(-c2cccnc2)n1
REMARK SMILES IDX 7 1 6 2 8 3 9 5 12 6 11 7 21 8 10 9 22 10 13 11 14 12 19 13
REMARK SMILES IDX 17 14 20 15 16 16 15 17 18 18 5 21 23 22 4 23 24 24 3 25
REMARK SMILES IDX 2 26 1 27 25 28 26 30 27 31 37 32 28 33 30 34 29 35 31 36
REMARK SMILES IDX 36 37 32 38 35 39 33 40 34 41
REMARK H PARENT 6 4 17 19 14 20 25 29
ROOT
ATOM      1  C   UNL     1      15.832  48.177  17.751  1.00  0.00     0.255 C 
ATOM      2  N   UNL     1      15.758  48.124  19.183  1.00  0.00    -0.322 N 
ATOM      3  O   UNL     1      15.993  47.114  17.090  1.00  0.00    -0.269 OA
ATOM      4  H   UNL     1      15.153  48.823  19.672  1.00  0.00     0.170 HD
ENDROOT
BRANCH   1   5
ATOM      5  C   UNL     1      15.685  49.463  17.040  1.00  0.00     0.040 A 
ATOM      6  C   UNL     1      15.409  51.964  15.769  1.00  0.00     0.006 A 
ATOM      7  C   UNL     1      16.680  51.402  15.959  1.00  0.00     0.010 A 
ATOM      8  C   UNL     1      14.277  51.261  16.210  1.00  0.00     0.010 A 
ATOM      9  C   UNL     1      16.817  50.167  16.600  1.00  0.00     0.014 A 
ATOM     10  C   UNL     1      14.413  50.017  16.833  1.00  0.00     0.014 A 
BRANCH   6  11
ATOM     11  C   UNL     1      15.257  53.326  15.128  1.00  0.00     0.299 C 
BRANCH  11  12
ATOM     12  N   UNL     1      15.226  53.259  13.643  1.00  0.00    -0.322 N 
ATOM     13  C   UNL     1      15.657  55.678  13.105  1.00  0.00     0.324 C 
ATOM     14  N   UNL     1      16.943  55.320  12.469  1.00  0.00    -0.328 N 
ATOM     15  C   UNL     1      14.666  54.498  13.055  1.00  0.00     0.324 C 
ATOM     16  C   UNL     1      17.523  54.121  13.105  1.00  0.00     0.324 C 
ATOM     17  C   UNL     1      16.541  52.939  13.035  1.00  0.00     0.324 C 
ATOM     18  C   UNL     1      17.884  56.449  12.560  1.00  0.00     0.333 C 
ATOM     19  H   UNL     1      16.778  55.120  11.455  1.00  0.00     0.348 HD
ATOM     20  H   UNL     1      14.570  52.484  13.379  1.00  0.00     0.348 HD
ENDBRANCH  11  12
ENDBRANCH   6  11
ENDBRANCH   1   5
BRANCH   2  21
ATOM     21  C   UNL     1      16.372  47.088  19.961  1.00  0.00     0.043 A 
ATOM     22  C   UNL     1      17.738  47.161  20.259  1.00  0.00     0.052 A 
ATOM     23  C   UNL     1      15.634  45.973  20.381  1.00  0.00     0.026 A 
ATOM     24  C   UNL     1      18.371  46.140  20.986  1.00  0.00     0.046 A 
ATOM     25  C   UNL     1      16.263  44.933  21.071  1.00  0.00     0.008 A 
ATOM     26  C   UNL     1      17.636  44.989  21.357  1.00  0.00    -0.027 A 
ATOM     27  C   UNL     1      18.272  43.813  22.049  1.00  0.00     0.046 C 
BRANCH  24  28
ATOM     28  N   UNL     1      19.756  46.301  21.328  1.00  0.00    -0.324 N 
ATOM     29  H   UNL     1      20.075  45.946  22.259  1.00  0.00     0.170 HD
BRANCH  28  30
ATOM     30  C   UNL     1      20.759  46.574  20.340  1.00  0.00     0.227 A 
ATOM     31  N   UNL     1      21.414  45.546  19.739  1.00  0.00    -0.221 NA
ATOM     32  N   UNL     1      21.051  47.854  19.988  1.00  0.00    -0.213 NA
ATOM     33  C   UNL     1      22.356  45.782  18.792  1.00  0.00     0.117 A 
ATOM     34  C   UNL     1      22.004  48.149  19.062  1.00  0.00     0.077 A 
ATOM     35  C   UNL     1      22.676  47.091  18.430  1.00  0.00     0.049 A 
BRANCH  34  36
ATOM     36  C   UNL     1      22.291  49.577  18.756  1.00  0.00     0.019 A 
ATOM     37  C   UNL     1      21.304  50.577  18.859  1.00  0.00     0.121 A 
ATOM     38  C   UNL     1      23.565  49.954  18.294  1.00  0.00     0.013 A 
ATOM     39  N   UNL     1      21.592  51.864  18.528  1.00  0.00    -0.264 NA
ATOM     40  C   UNL     1      23.832  51.283  17.964  1.00  0.00     0.021 A 
ATOM     41  C   UNL     1      22.823  52.234  18.091  1.00  0.00     0.111 A 
ENDBRANCH  34  36
ENDBRANCH  28  30
ENDBRANCH  24  28
ENDBRANCH   2  21
TORSDOF 7
ENDMDL
MODEL 3
REMARK VINA RESULT:    -9.655      3.631     12.307
REMARK INTER + INTRA:         -14.036
REMARK INTER:                 -12.913
REMARK INTRA:                  -1.123
REMARK UNBOUND:                -0.430
REMARK SMILES Cc1ccc(NC(=O)c2ccc(C[N@H+]3CC[N@@H+](C)CC3)cc2)cc1Nc1nccc(-c2cccnc2)n1
REMARK SMILES IDX 7 1 6 2 8 3 9 5 12 6 11 7 21 8 10 9 22 10 13 11 14 12 19 13
REMARK SMILES IDX 17 14 20 15 16 16 15 17 18 18 5 21 23 22 4 23 24 24 3 25
REMARK SMILES IDX 2 26 1 27 25 28 26 30 27 31 37 32 28 33 30 34 29 35 31 36
REMARK SMILES IDX 36 37 32 38 35 39 33 40 34 41
REMARK H PARENT 6 4 17 19 14 20 25 29
ROOT
ATOM      1  C   UNL     1      15.906  48.075  17.773  1.00  0.00     0.255 C 
ATOM      2  N   UNL     1      15.877  48.026  19.207  1.00  0.00    -0.322 N 
ATOM      3  O   UNL     1      16.037  47.008  17.110  1.00  0.00    -0.269 OA
ATOM      4  H   UNL     1      15.295  48.731  19.713  1.00  0.00     0.170 HD
ENDROOT
BRANCH   1   5
ATOM      5  C   UNL     1      15.749  49.361  17.064  1.00  0.00     0.040 A 
ATOM      6  C   UNL     1      15.447  51.860  15.797  1.00  0.00     0.006 A 
ATOM      7  C   UNL     1      16.727  51.347  16.054  1.00  0.00     0.010 A 
ATOM      8  C   UNL     1      14.320  51.110  16.169  1.00  0.00     0.010 A 
ATOM      9  C   UNL     1      16.876  50.112  16.693  1.00  0.00     0.014 A 
ATOM     10  C   UNL     1      14.470  49.867  16.789  1.00  0.00     0.014 A 
BRANCH   6  11
ATOM     11  C   UNL     1      15.278  53.221  15.157  1.00  0.00     0.299 C 
BRANCH  11  12
ATOM     12  N   UNL     1      15.258  53.157  13.672  1.00  0.00    -0.322 N 
ATOM     13  C   UNL     1      15.679  55.579  13.142  1.00  0.00     0.324 C 
ATOM     14  N   UNL     1      16.972  55.230  12.516  1.00  0.00    -0.328 N 
ATOM     15  C   UNL     1      14.695  54.394  13.082  1.00  0.00     0.324 C 
ATOM     16  C   UNL     1      17.554  54.033  13.154  1.00  0.00     0.324 C 
ATOM     17  C   UNL     1      16.580  52.846  13.073  1.00  0.00     0.324 C 
ATOM     18  C   UNL     1      17.906  56.365  12.616  1.00  0.00     0.333 C 
ATOM     19  H   UNL     1      16.816  55.031  11.499  1.00  0.00     0.348 HD
ATOM     20  H   UNL     1      14.609  52.378  13.401  1.00  0.00     0.348 HD
ENDBRANCH  11  12
ENDBRANCH   6  11
ENDBRANCH   1   5
BRANCH   2  21
ATOM     21  C   UNL     1      16.506  46.986  19.968  1.00  0.00     0.043 A 
ATOM     22  C   UNL     1      17.889  47.024  20.185  1.00  0.00     0.052 A 
ATOM     23  C   UNL     1      15.763  45.900  20.452  1.00  0.00     0.026 A 
ATOM     24  C   UNL     1      18.534  45.998  20.894  1.00  0.00     0.046 A 
ATOM     25  C   UNL     1      16.401  44.855  21.123  1.00  0.00     0.008 A 
ATOM     26  C   UNL     1      17.789  44.875  21.329  1.00  0.00    -0.027 A 
ATOM     27  C   UNL     1      18.431  43.693  22.005  1.00  0.00     0.046 C 
BRANCH  24  28
ATOM     28  N   UNL     1      19.941  46.124  21.152  1.00  0.00    -0.324 N 
ATOM     29  H   UNL     1      20.571  45.363  20.809  1.00  0.00     0.170 HD
BRANCH  28  30
ATOM     30  C   UNL     1      20.541  47.374  21.513  1.00  0.00     0.227 A 
ATOM     31  N   UNL     1      20.399  47.853  22.777  1.00  0.00    -0.221 NA
ATOM     32  N   UNL     1      21.266  48.079  20.605  1.00  0.00    -0.213 NA
ATOM     33  C   UNL     1      20.971  49.028  23.144  1.00  0.00     0.117 A 
ATOM     34  C   UNL     1      21.842  49.274  20.911  1.00  0.00     0.077 A 
ATOM     35  C   UNL     1      21.706  49.769  22.219  1.00  0.00     0.049 A 
BRANCH  34  36
ATOM     36  C   UNL     1      22.591  50.004  19.853  1.00  0.00     0.019 A 
ATOM     37  C   UNL     1      22.808  51.396  19.915  1.00  0.00     0.121 A 
ATOM     38  C   UNL     1      23.059  49.314  18.720  1.00  0.00     0.013 A 
ATOM     39  N   UNL     1      23.458  52.036  18.907  1.00  0.00    -0.264 NA
ATOM     40  C   UNL     1      23.725  49.998  17.702  1.00  0.00     0.021 A 
ATOM     41  C   UNL     1      23.920  51.372  17.816  1.00  0.00     0.111 A 
ENDBRANCH  34  36
ENDBRANCH  28  30
ENDBRANCH  24  28
ENDBRANCH   2  21
TORSDOF 7
ENDMDL
MODEL 4
REMARK VINA RESULT:    -9.583      2.915     12.349
REMARK INTER + INTRA:         -13.935
REMARK INTER:                 -12.878
REMARK INTRA:                  -1.057
REMARK UNBOUND:                -0.430
REMARK SMILES Cc1ccc(NC(=O)c2ccc(C[N@H+]3CC[N@@H+](C)CC3)cc2)cc1Nc1nccc(-c2cccnc2)n1
REMARK SMILES IDX 7 1 6 2 8 3 9 5 12 6 11 7 21 8 10 9 22 10 13 11 14 12 19 13
REMARK SMILES IDX 17 14 20 15 16 16 15 17 18 18 5 21 23 22 4 23 24 24 3 25
REMARK SMILES IDX 2 26 1 27 25 28 26 30 27 31 37 32 28 33 30 34 29 35 31 36
REMARK SMILES IDX 36 37 32 38 35 39 33 40 34 41
REMARK H PARENT 6 4 17 19 14 20 25 29
ROOT
ATOM      1  C   UNL     1      14.788  50.387  16.088  1.00  0.00     0.255 C 
ATOM      2  N   UNL     1      14.547  50.429  17.502  1.00  0.00    -0.322 N 
ATOM      3  O   UNL     1      14.526  49.338  15.436  1.00  0.00    -0.269 OA
ATOM      4  H   UNL     1      14.270  51.343  17.928  1.00  0.00     0.170 HD
ENDROOT
BRANCH   1   5
ATOM      5  C   UNL     1      15.307  51.575  15.381  1.00  0.00     0.040 A 
ATOM      6  C   UNL     1      16.218  53.846  13.981  1.00  0.00     0.006 A 
ATOM      7  C   UNL     1      15.500  53.992  15.177  1.00  0.00     0.010 A 
ATOM      8  C   UNL     1      16.485  52.555  13.497  1.00  0.00     0.010 A 
ATOM      9  C   UNL     1      15.039  52.865  15.865  1.00  0.00     0.014 A 
ATOM     10  C   UNL     1      16.041  51.430  14.195  1.00  0.00     0.014 A 
BRANCH   6  11
ATOM     11  C   UNL     1      16.671  55.060  13.202  1.00  0.00     0.299 C 
BRANCH  11  12
ATOM     12  N   UNL     1      15.840  55.307  11.993  1.00  0.00    -0.322 N 
ATOM     13  C   UNL     1      13.985  56.655  13.026  1.00  0.00     0.324 C 
ATOM     14  N   UNL     1      14.381  57.834  12.228  1.00  0.00    -0.328 N 
ATOM     15  C   UNL     1      14.397  55.346  12.324  1.00  0.00     0.324 C 
ATOM     16  C   UNL     1      15.832  57.818  11.958  1.00  0.00     0.324 C 
ATOM     17  C   UNL     1      16.236  56.521  11.237  1.00  0.00     0.324 C 
ATOM     18  C   UNL     1      14.009  59.072  12.934  1.00  0.00     0.333 C 
ATOM     19  H   UNL     1      13.866  57.818  11.316  1.00  0.00     0.348 HD
ATOM     20  H   UNL     1      15.974  54.489  11.350  1.00  0.00     0.348 HD
ENDBRANCH  11  12
ENDBRANCH   6  11
ENDBRANCH   1   5
BRANCH   2  21
ATOM     21  C   UNL     1      14.547  49.259  18.332  1.00  0.00     0.043 A 
ATOM     22  C   UNL     1      15.717  48.501  18.461  1.00  0.00     0.052 A 
ATOM     23  C   UNL     1      13.375  48.833  18.971  1.00  0.00     0.026 A 
ATOM     24  C   UNL     1      15.733  47.331  19.236  1.00  0.00     0.046 A 
ATOM     25  C   UNL     1      13.370  47.648  19.712  1.00  0.00     0.008 A 
ATOM     26  C   UNL     1      14.533  46.872  19.832  1.00  0.00    -0.027 A 
ATOM     27  C   UNL     1      14.454  45.575  20.592  1.00  0.00     0.046 C 
BRANCH  24  28
ATOM     28  N   UNL     1      16.977  46.632  19.396  1.00  0.00    -0.324 N 
ATOM     29  H   UNL     1      17.185  45.847  18.737  1.00  0.00     0.170 HD
BRANCH  28  30
ATOM     30  C   UNL     1      18.069  47.180  20.146  1.00  0.00     0.227 A 
ATOM     31  N   UNL     1      18.022  47.184  21.505  1.00  0.00    -0.221 NA
ATOM     32  N   UNL     1      19.160  47.682  19.511  1.00  0.00    -0.213 NA
ATOM     33  C   UNL     1      19.050  47.685  22.234  1.00  0.00     0.117 A 
ATOM     34  C   UNL     1      20.210  48.218  20.191  1.00  0.00     0.077 A 
ATOM     35  C   UNL     1      20.171  48.217  21.595  1.00  0.00     0.049 A 
BRANCH  34  36
ATOM     36  C   UNL     1      21.354  48.780  19.423  1.00  0.00     0.019 A 
ATOM     37  C   UNL     1      21.427  50.146  19.083  1.00  0.00     0.121 A 
ATOM     38  C   UNL     1      22.377  47.931  18.964  1.00  0.00     0.013 A 
ATOM     39  N   UNL     1      22.466  50.615  18.341  1.00  0.00    -0.264 NA
ATOM     40  C   UNL     1      23.432  48.442  18.207  1.00  0.00     0.021 A 
ATOM     41  C   UNL     1      23.461  49.801  17.904  1.00  0.00     0.111 A 
ENDBRANCH  34  36
ENDBRANCH  28  30
ENDBRANCH  24  28
ENDBRANCH   2  21
TORSDOF 7
ENDMDL
MODEL 5
REMARK VINA RESULT:    -9.332      3.642     12.733
REMARK INTER + INTRA:         -13.581
REMARK INTER:                 -12.427
REMARK INTRA:                  -1.154
REMARK UNBOUND:                -0.430
REMARK SMILES Cc1ccc(NC(=O)c2ccc(C[N@H+]3CC[N@@H+](C)CC3)cc2)cc1Nc1nccc(-c2cccnc2)n1
REMARK SMILES IDX 7 1 6 2 8 3 9 5 12 6 11 7 21 8 10 9 22 10 13 11 14 12 19 13
REMARK SMILES IDX 17 14 20 15 16 16 15 17 18 18 5 21 23 22 4 23 24 24 3 25
REMARK SMILES IDX 2 26 1 27 25 28 26 30 27 31 37 32 28 33 30 34 29 35 31 36
REMARK SMILES IDX 36 37 32 38 35 39 33 40 34 41
REMARK H PARENT 6 4 17 19 14 20 25 29
ROOT
ATOM      1  C   UNL     1      15.926  48.118  17.794  1.00  0.00     0.255 C 
ATOM      2  N   UNL     1      16.169  48.191  19.206  1.00  0.00    -0.322 N 
ATOM      3  O   UNL     1      15.706  47.000  17.251  1.00  0.00    -0.269 OA
ATOM      4  H   UNL     1      15.851  49.046  19.718  1.00  0.00     0.170 HD
ENDROOT
BRANCH   1   5
ATOM      5  C   UNL     1      15.897  49.347  16.975  1.00  0.00     0.040 A 
ATOM      6  C   UNL     1      15.877  51.642  15.338  1.00  0.00     0.006 A 
ATOM      7  C   UNL     1      14.755  50.802  15.394  1.00  0.00     0.010 A 
ATOM      8  C   UNL     1      17.005  51.330  16.115  1.00  0.00     0.010 A 
ATOM      9  C   UNL     1      14.770  49.657  16.197  1.00  0.00     0.014 A 
ATOM     10  C   UNL     1      17.011  50.197  16.933  1.00  0.00     0.014 A 
BRANCH   6  11
ATOM     11  C   UNL     1      15.891  52.850  14.429  1.00  0.00     0.299 C 
BRANCH  11  12
ATOM     12  N   UNL     1      17.267  53.278  14.066  1.00  0.00    -0.322 N 
ATOM     13  C   UNL     1      16.877  53.971  11.680  1.00  0.00     0.324 C 
ATOM     14  N   UNL     1      17.204  55.371  12.020  1.00  0.00    -0.328 N 
ATOM     15  C   UNL     1      17.570  52.989  12.645  1.00  0.00     0.324 C 
ATOM     16  C   UNL     1      16.839  55.667  13.419  1.00  0.00     0.324 C 
ATOM     17  C   UNL     1      17.550  54.701  14.382  1.00  0.00     0.324 C 
ATOM     18  C   UNL     1      16.504  56.291  11.107  1.00  0.00     0.333 C 
ATOM     19  H   UNL     1      18.233  55.521  11.898  1.00  0.00     0.348 HD
ATOM     20  H   UNL     1      17.934  52.701  14.634  1.00  0.00     0.348 HD
ENDBRANCH  11  12
ENDBRANCH   6  11
ENDBRANCH   1   5
BRANCH   2  21
ATOM     21  C   UNL     1      16.710  47.102  19.966  1.00  0.00     0.043 A 
ATOM     22  C   UNL     1      18.097  46.912  20.014  1.00  0.00     0.052 A 
ATOM     23  C   UNL     1      15.867  46.191  20.616  1.00  0.00     0.026 A 
ATOM     24  C   UNL     1      18.650  45.831  20.719  1.00  0.00     0.046 A 
ATOM     25  C   UNL     1      16.406  45.089  21.286  1.00  0.00     0.008 A 
ATOM     26  C   UNL     1      17.793  44.880  21.324  1.00  0.00    -0.027 A 
ATOM     27  C   UNL     1      18.313  43.644  22.008  1.00  0.00     0.046 C 
BRANCH  24  28
ATOM     28  N   UNL     1      20.080  45.725  20.798  1.00  0.00    -0.324 N 
ATOM     29  H   UNL     1      20.588  45.329  19.974  1.00  0.00     0.170 HD
BRANCH  28  30
ATOM     30  C   UNL     1      20.846  46.454  21.766  1.00  0.00     0.227 A 
ATOM     31  N   UNL     1      21.681  45.790  22.607  1.00  0.00    -0.221 NA
ATOM     32  N   UNL     1      20.757  47.808  21.839  1.00  0.00    -0.213 NA
ATOM     33  C   UNL     1      22.426  46.462  23.521  1.00  0.00     0.117 A 
ATOM     34  C   UNL     1      21.462  48.531  22.751  1.00  0.00     0.077 A 
ATOM     35  C   UNL     1      22.334  47.851  23.617  1.00  0.00     0.049 A 
BRANCH  34  36
ATOM     36  C   UNL     1      21.284  50.008  22.793  1.00  0.00     0.019 A 
ATOM     37  C   UNL     1      21.906  50.862  21.861  1.00  0.00     0.121 A 
ATOM     38  C   UNL     1      20.521  50.595  23.818  1.00  0.00     0.013 A 
ATOM     39  N   UNL     1      21.756  52.210  21.957  1.00  0.00    -0.264 NA
ATOM     40  C   UNL     1      20.383  51.982  23.890  1.00  0.00     0.021 A 
ATOM     41  C   UNL     1      21.013  52.781  22.940  1.00  0.00     0.111 A 
ENDBRANCH  34  36
ENDBRANCH  28  30
ENDBRANCH  24  28
ENDBRANCH   2  21
TORSDOF 7
ENDMDL
