
     RDKit          3D

 70 74  0  0  0  0  0  0  0  0999 V2000
   17.4750   56.0250   10.6160 C   0  0  0  0  0  0  0  0  0  0  0  0
   16.9700   54.9780   11.5720 C   0  0  0  0  0  0  0  0  0  0  0  0
   17.8460   53.9550   11.9660 C   0  0  0  0  0  0  0  0  0  0  0  0
   17.4120   52.9280   12.8080 C   0  0  0  0  0  0  0  0  0  0  0  0
   16.0890   52.9040   13.2670 C   0  0  0  0  0  0  0  0  0  0  0  0
   15.6070   51.8140   14.0650 N   0  0  0  0  0  0  0  0  0  0  0  0
   15.4770   51.8840   15.4920 C   0  0  0  0  0  0  0  0  0  0  0  0
   15.3030   53.0010   16.0530 O   0  0  0  0  0  0  0  0  0  0  0  0
   15.5100   50.6540   16.3080 C   0  0  0  0  0  0  0  0  0  0  0  0
   14.3310   50.1400   16.8720 C   0  0  0  0  0  0  0  0  0  0  0  0
   14.3670   48.9960   17.6730 C   0  0  0  0  0  0  0  0  0  0  0  0
   15.5870   48.3590   17.9440 C   0  0  0  0  0  0  0  0  0  0  0  0
   15.6420   47.1540   18.8560 C   0  0  0  0  0  0  0  0  0  0  0  0
   15.8030   47.5260   20.2860 N   0  0  2  0  0  4  0  0  0  0  0  0
   17.2080   47.8080   20.6720 C   0  0  0  0  0  0  0  0  0  0  0  0
   18.0610   46.5320   20.7580 C   0  0  0  0  0  0  0  0  0  0  0  0
   17.4570   45.5640   21.6950 N   0  0  2  0  0  4  0  0  0  0  0  0
   18.2720   44.3380   21.7550 C   0  0  0  0  0  0  0  0  0  0  0  0
   16.0750   45.2350   21.2890 C   0  0  0  0  0  0  0  0  0  0  0  0
   15.2100   46.5070   21.1840 C   0  0  0  0  0  0  0  0  0  0  0  0
   16.7670   48.8730   17.3810 C   0  0  0  0  0  0  0  0  0  0  0  0
   16.7280   50.0050   16.5640 C   0  0  0  0  0  0  0  0  0  0  0  0
   15.2120   53.9310   12.8950 C   0  0  0  0  0  0  0  0  0  0  0  0
   15.6490   54.9900   12.0820 C   0  0  0  0  0  0  0  0  0  0  0  0
   14.7310   56.0540   11.7920 N   0  0  0  0  0  0  0  0  0  0  0  0
   14.8900   57.3690   12.3410 C   0  0  0  0  0  0  0  0  0  0  0  0
   16.0210   57.6850   13.0240 N   0  0  0  0  0  0  0  0  0  0  0  0
   16.1970   58.9280   13.5400 C   0  0  0  0  0  0  0  0  0  0  0  0
   15.2080   59.9000   13.3840 C   0  0  0  0  0  0  0  0  0  0  0  0
   14.0370   59.5650   12.6840 C   0  0  0  0  0  0  0  0  0  0  0  0
   12.9220   60.5290   12.4850 C   0  0  0  0  0  0  0  0  0  0  0  0
   13.0900   61.8810   12.8330 C   0  0  0  0  0  0  0  0  0  0  0  0
   12.0640   62.8010   12.6110 C   0  0  0  0  0  0  0  0  0  0  0  0
   10.8720   62.3680   12.0350 C   0  0  0  0  0  0  0  0  0  0  0  0
   10.7180   61.0640   11.6910 N   0  0  0  0  0  0  0  0  0  0  0  0
   11.6980   60.1450   11.8980 C   0  0  0  0  0  0  0  0  0  0  0  0
   13.9240   58.3100   12.1690 N   0  0  0  0  0  0  0  0  0  0  0  0
   17.8842   56.8734   11.1841 H   0  0  0  0  0  0  0  0  0  0  0  0
   18.2639   55.5932    9.9826 H   0  0  0  0  0  0  0  0  0  0  0  0
   16.6460   56.3736    9.9826 H   0  0  0  0  0  0  0  0  0  0  0  0
   18.8861   53.9617   11.6079 H   0  0  0  0  0  0  0  0  0  0  0  0
   18.1119   52.1355   13.1115 H   0  0  0  0  0  0  0  0  0  0  0  0
   15.2480   50.9610   13.5780 H   0  0  0  0  0  0  0  0  0  0  0  0
   13.3712   50.6424   16.6815 H   0  0  0  0  0  0  0  0  0  0  0  0
   13.4339   48.5927   18.0933 H   0  0  0  0  0  0  0  0  0  0  0  0
   14.7080   46.5840   18.7433 H   0  0  0  0  0  0  0  0  0  0  0  0
   16.5193   46.5569   18.5664 H   0  0  0  0  0  0  0  0  0  0  0  0
   15.2600   48.4100   20.4430 H   0  0  0  0  0  0  0  0  0  0  0  0
   17.6520   48.4796   19.9224 H   0  0  0  0  0  0  0  0  0  0  0  0
   17.1947   48.2697   21.6703 H   0  0  0  0  0  0  0  0  0  0  0  0
   18.1287   46.0747   19.7599 H   0  0  0  0  0  0  0  0  0  0  0  0
   19.0634   46.8001   21.1231 H   0  0  0  0  0  0  0  0  0  0  0  0
   17.4400   45.9850   22.6540 H   0  0  0  0  0  0  0  0  0  0  0  0
   18.4514   44.0681   22.8062 H   0  0  0  0  0  0  0  0  0  0  0  0
   17.7386   43.5181   21.2518 H   0  0  0  0  0  0  0  0  0  0  0  0
   19.2345   44.5125   21.2518 H   0  0  0  0  0  0  0  0  0  0  0  0
   16.0977   44.7341   20.3099 H   0  0  0  0  0  0  0  0  0  0  0  0
   15.6347   44.5748   22.0507 H   0  0  0  0  0  0  0  0  0  0  0  0
   14.2193   46.2285   20.7954 H   0  0  0  0  0  0  0  0  0  0  0  0
   15.1417   46.9478   22.1895 H   0  0  0  0  0  0  0  0  0  0  0  0
   17.7290   48.3801   17.5852 H   0  0  0  0  0  0  0  0  0  0  0  0
   17.6571   50.3902   16.1186 H   0  0  0  0  0  0  0  0  0  0  0  0
   14.1689   53.9080   13.2436 H   0  0  0  0  0  0  0  0  0  0  0  0
   13.7940   55.8000   11.4020 H   0  0  0  0  0  0  0  0  0  0  0  0
   17.1225   59.1700   14.0831 H   0  0  0  0  0  0  0  0  0  0  0  0
   15.3427   60.9089   13.8010 H   0  0  0  0  0  0  0  0  0  0  0  0
   14.0362   62.2158   13.2831 H   0  0  0  0  0  0  0  0  0  0  0  0
   12.1955   63.8574   12.8882 H   0  0  0  0  0  0  0  0  0  0  0  0
   10.0550   63.0832   11.8588 H   0  0  0  0  0  0  0  0  0  0  0  0
   11.5359   59.0968   11.6064 H   0  0  0  0  0  0  0  0  0  0  0  0
  1  2  1  0
  2  3  2  0
  3  4  1  0
  4  5  2  0
  5  6  1  0
  6  7  1  0
  7  8  2  0
  7  9  1  0
  9 10  2  0
 10 11  1  0
 11 12  2  0
 12 13  1  0
 13 14  1  0
 14 15  1  0
 15 16  1  0
 16 17  1  0
 17 18  1  0
 17 19  1  0
 19 20  1  0
 12 21  1  0
 21 22  2  0
  5 23  1  0
 23 24  2  0
 24 25  1  0
 25 26  1  0
 26 27  2  0
 27 28  1  0
 28 29  2  0
 29 30  1  0
 30 31  1  0
 31 32  2  0
 32 33  1  0
 33 34  2  0
 34 35  1  0
 35 36  2  0
 30 37  2  0
 24  2  1  0
 37 26  1  0
 22  9  1  0
 36 31  1  0
 20 14  1  0
  1 38  1  0
  1 39  1  0
  1 40  1  0
  3 41  1  0
  4 42  1  0
  6 43  1  0
 10 44  1  0
 11 45  1  0
 13 46  1  0
 13 47  1  0
 14 48  1  1
 15 49  1  0
 15 50  1  0
 16 51  1  0
 16 52  1  0
 17 53  1  6
 18 54  1  0
 18 55  1  0
 18 56  1  0
 19 57  1  0
 19 58  1  0
 20 59  1  0
 20 60  1  0
 21 61  1  0
 22 62  1  0
 23 63  1  0
 25 64  1  0
 28 65  1  0
 29 66  1  0
 32 67  1  0
 33 68  1  0
 34 69  1  0
 36 70  1  0
M  CHG  2  14   1  17   1
M  END
>  <meeko>  (1) 
{"is_sidechain": [false], "free_energy": -12.315, "intermolecular_energy": -17.354, "internal_energy": -0.43}

$$$$

     RDKit          3D

 70 74  0  0  0  0  0  0  0  0999 V2000
   18.2720   43.8130   22.0490 C   0  0  0  0  0  0  0  0  0  0  0  0
   17.6360   44.9890   21.3570 C   0  0  0  0  0  0  0  0  0  0  0  0
   16.2630   44.9330   21.0710 C   0  0  0  0  0  0  0  0  0  0  0  0
   15.6340   45.9730   20.3810 C   0  0  0  0  0  0  0  0  0  0  0  0
   16.3720   47.0880   19.9610 C   0  0  0  0  0  0  0  0  0  0  0  0
   15.7580   48.1240   19.1830 N   0  0  0  0  0  0  0  0  0  0  0  0
   15.8320   48.1770   17.7510 C   0  0  0  0  0  0  0  0  0  0  0  0
   15.9930   47.1140   17.0900 O   0  0  0  0  0  0  0  0  0  0  0  0
   15.6850   49.4630   17.0400 C   0  0  0  0  0  0  0  0  0  0  0  0
   16.8170   50.1670   16.6000 C   0  0  0  0  0  0  0  0  0  0  0  0
   16.6800   51.4020   15.9590 C   0  0  0  0  0  0  0  0  0  0  0  0
   15.4090   51.9640   15.7690 C   0  0  0  0  0  0  0  0  0  0  0  0
   15.2570   53.3260   15.1280 C   0  0  0  0  0  0  0  0  0  0  0  0
   15.2260   53.2590   13.6430 N   0  0  2  0  0  4  0  0  0  0  0  0
   16.5410   52.9390   13.0350 C   0  0  0  0  0  0  0  0  0  0  0  0
   17.5230   54.1210   13.1050 C   0  0  0  0  0  0  0  0  0  0  0  0
   16.9430   55.3200   12.4690 N   0  0  2  0  0  4  0  0  0  0  0  0
   17.8840   56.4490   12.5600 C   0  0  0  0  0  0  0  0  0  0  0  0
   15.6570   55.6780   13.1050 C   0  0  0  0  0  0  0  0  0  0  0  0
   14.6660   54.4980   13.0550 C   0  0  0  0  0  0  0  0  0  0  0  0
   14.2770   51.2610   16.2100 C   0  0  0  0  0  0  0  0  0  0  0  0
   14.4130   50.0170   16.8330 C   0  0  0  0  0  0  0  0  0  0  0  0
   17.7380   47.1610   20.2590 C   0  0  0  0  0  0  0  0  0  0  0  0
   18.3710   46.1400   20.9860 C   0  0  0  0  0  0  0  0  0  0  0  0
   19.7560   46.3010   21.3280 N   0  0  0  0  0  0  0  0  0  0  0  0
   20.7590   46.5740   20.3400 C   0  0  0  0  0  0  0  0  0  0  0  0
   21.4140   45.5460   19.7390 N   0  0  0  0  0  0  0  0  0  0  0  0
   22.3560   45.7820   18.7920 C   0  0  0  0  0  0  0  0  0  0  0  0
   22.6760   47.0910   18.4300 C   0  0  0  0  0  0  0  0  0  0  0  0
   22.0040   48.1490   19.0620 C   0  0  0  0  0  0  0  0  0  0  0  0
   22.2910   49.5770   18.7560 C   0  0  0  0  0  0  0  0  0  0  0  0
   23.5650   49.9540   18.2940 C   0  0  0  0  0  0  0  0  0  0  0  0
   23.8320   51.2830   17.9640 C   0  0  0  0  0  0  0  0  0  0  0  0
   22.8230   52.2340   18.0910 C   0  0  0  0  0  0  0  0  0  0  0  0
   21.5920   51.8640   18.5280 N   0  0  0  0  0  0  0  0  0  0  0  0
   21.3040   50.5770   18.8590 C   0  0  0  0  0  0  0  0  0  0  0  0
   21.0510   47.8540   19.9880 N   0  0  0  0  0  0  0  0  0  0  0  0
   18.2001   43.9459   23.1386 H   0  0  0  0  0  0  0  0  0  0  0  0
   17.7503   42.8897   21.7570 H   0  0  0  0  0  0  0  0  0  0  0  0
   19.3303   43.7442   21.7570 H   0  0  0  0  0  0  0  0  0  0  0  0
   15.6754   44.0608   21.3935 H   0  0  0  0  0  0  0  0  0  0  0  0
   14.5565   45.9162   20.1669 H   0  0  0  0  0  0  0  0  0  0  0  0
   15.1530   48.8230   19.6720 H   0  0  0  0  0  0  0  0  0  0  0  0
   17.8195   49.7438   16.7608 H   0  0  0  0  0  0  0  0  0  0  0  0
   17.5733   51.9355   15.6020 H   0  0  0  0  0  0  0  0  0  0  0  0
   14.3180   53.7781   15.4799 H   0  0  0  0  0  0  0  0  0  0  0  0
   16.1307   53.9291   15.4160 H   0  0  0  0  0  0  0  0  0  0  0  0
   14.5700   52.4840   13.3790 H   0  0  0  0  0  0  0  0  0  0  0  0
   16.9790   52.0838   13.5705 H   0  0  0  0  0  0  0  0  0  0  0  0
   16.3717   52.7062   11.9733 H   0  0  0  0  0  0  0  0  0  0  0  0
   17.7457   54.3434   14.1590 H   0  0  0  0  0  0  0  0  0  0  0  0
   18.4441   53.8475   12.5696 H   0  0  0  0  0  0  0  0  0  0  0  0
   16.7780   55.1200   11.4550 H   0  0  0  0  0  0  0  0  0  0  0  0
   18.0773   56.6809   13.6178 H   0  0  0  0  0  0  0  0  0  0  0  0
   18.8288   56.1797   12.0651 H   0  0  0  0  0  0  0  0  0  0  0  0
   17.4489   57.3298   12.0651 H   0  0  0  0  0  0  0  0  0  0  0  0
   15.8390   55.9502   14.1552 H   0  0  0  0  0  0  0  0  0  0  0  0
   15.2197   56.5252   12.5564 H   0  0  0  0  0  0  0  0  0  0  0  0
   13.7599   54.7749   13.6138 H   0  0  0  0  0  0  0  0  0  0  0  0
   14.4436   54.2940   11.9972 H   0  0  0  0  0  0  0  0  0  0  0  0
   13.2755   51.6921   16.0643 H   0  0  0  0  0  0  0  0  0  0  0  0
   13.5177   49.4696   17.1627 H   0  0  0  0  0  0  0  0  0  0  0  0
   18.3225   48.0288   19.9195 H   0  0  0  0  0  0  0  0  0  0  0  0
   20.0750   45.9460   22.2590 H   0  0  0  0  0  0  0  0  0  0  0  0
   22.8695   44.9384   18.3076 H   0  0  0  0  0  0  0  0  0  0  0  0
   23.4401   47.2900   17.6642 H   0  0  0  0  0  0  0  0  0  0  0  0
   24.3558   49.1962   18.1923 H   0  0  0  0  0  0  0  0  0  0  0  0
   24.8301   51.5767   17.6069 H   0  0  0  0  0  0  0  0  0  0  0  0
   23.0233   53.2854   17.8372 H   0  0  0  0  0  0  0  0  0  0  0  0
   20.2946   50.3151   19.2092 H   0  0  0  0  0  0  0  0  0  0  0  0
  1  2  1  0
  2  3  2  0
  3  4  1  0
  4  5  2  0
  5  6  1  0
  6  7  1  0
  7  8  2  0
  7  9  1  0
  9 10  2  0
 10 11  1  0
 11 12  2  0
 12 13  1  0
 13 14  1  0
 14 15  1  0
 15 16  1  0
 16 17  1  0
 17 18  1  0
 17 19  1  0
 19 20  1  0
 12 21  1  0
 21 22  2  0
  5 23  1  0
 23 24  2  0
 24 25  1  0
 25 26  1  0
 26 27  2  0
 27 28  1  0
 28 29  2  0
 29 30  1  0
 30 31  1  0
 31 32  2  0
 32 33  1  0
 33 34  2  0
 34 35  1  0
 35 36  2  0
 30 37  2  0
 24  2  1  0
 37 26  1  0
 22  9  1  0
 36 31  1  0
 20 14  1  0
  1 38  1  0
  1 39  1  0
  1 40  1  0
  3 41  1  0
  4 42  1  0
  6 43  1  0
 10 44  1  0
 11 45  1  0
 13 46  1  0
 13 47  1  0
 14 48  1  6
 15 49  1  0
 15 50  1  0
 16 51  1  0
 16 52  1  0
 17 53  1  1
 18 54  1  0
 18 55  1  0
 18 56  1  0
 19 57  1  0
 19 58  1  0
 20 59  1  0
 20 60  1  0
 21 61  1  0
 22 62  1  0
 23 63  1  0
 25 64  1  0
 28 65  1  0
 29 66  1  0
 32 67  1  0
 33 68  1  0
 34 69  1  0
 36 70  1  0
M  CHG  2  14   1  17   1
M  END
>  <meeko>  (2) 
{"is_sidechain": [false], "free_energy": -10.031, "intermolecular_energy": -13.425, "internal_energy": -1.141}

$$$$

     RDKit          3D

 70 74  0  0  0  0  0  0  0  0999 V2000
   18.4310   43.6930   22.0050 C   0  0  0  0  0  0  0  0  0  0  0  0
   17.7890   44.8750   21.3290 C   0  0  0  0  0  0  0  0  0  0  0  0
   16.4010   44.8550   21.1230 C   0  0  0  0  0  0  0  0  0  0  0  0
   15.7630   45.9000   20.4520 C   0  0  0  0  0  0  0  0  0  0  0  0
   16.5060   46.9860   19.9680 C   0  0  0  0  0  0  0  0  0  0  0  0
   15.8770   48.0260   19.2070 N   0  0  0  0  0  0  0  0  0  0  0  0
   15.9060   48.0750   17.7730 C   0  0  0  0  0  0  0  0  0  0  0  0
   16.0370   47.0080   17.1100 O   0  0  0  0  0  0  0  0  0  0  0  0
   15.7490   49.3610   17.0640 C   0  0  0  0  0  0  0  0  0  0  0  0
   16.8760   50.1120   16.6930 C   0  0  0  0  0  0  0  0  0  0  0  0
   16.7270   51.3470   16.0540 C   0  0  0  0  0  0  0  0  0  0  0  0
   15.4470   51.8600   15.7970 C   0  0  0  0  0  0  0  0  0  0  0  0
   15.2780   53.2210   15.1570 C   0  0  0  0  0  0  0  0  0  0  0  0
   15.2580   53.1570   13.6720 N   0  0  2  0  0  4  0  0  0  0  0  0
   16.5800   52.8460   13.0730 C   0  0  0  0  0  0  0  0  0  0  0  0
   17.5540   54.0330   13.1540 C   0  0  0  0  0  0  0  0  0  0  0  0
   16.9720   55.2300   12.5160 N   0  0  2  0  0  4  0  0  0  0  0  0
   17.9060   56.3650   12.6160 C   0  0  0  0  0  0  0  0  0  0  0  0
   15.6790   55.5790   13.1420 C   0  0  0  0  0  0  0  0  0  0  0  0
   14.6950   54.3940   13.0820 C   0  0  0  0  0  0  0  0  0  0  0  0
   14.3200   51.1100   16.1690 C   0  0  0  0  0  0  0  0  0  0  0  0
   14.4700   49.8670   16.7890 C   0  0  0  0  0  0  0  0  0  0  0  0
   17.8890   47.0240   20.1850 C   0  0  0  0  0  0  0  0  0  0  0  0
   18.5340   45.9980   20.8940 C   0  0  0  0  0  0  0  0  0  0  0  0
   19.9410   46.1240   21.1520 N   0  0  0  0  0  0  0  0  0  0  0  0
   20.5410   47.3740   21.5130 C   0  0  0  0  0  0  0  0  0  0  0  0
   20.3990   47.8530   22.7770 N   0  0  0  0  0  0  0  0  0  0  0  0
   20.9710   49.0280   23.1440 C   0  0  0  0  0  0  0  0  0  0  0  0
   21.7060   49.7690   22.2190 C   0  0  0  0  0  0  0  0  0  0  0  0
   21.8420   49.2740   20.9110 C   0  0  0  0  0  0  0  0  0  0  0  0
   22.5910   50.0040   19.8530 C   0  0  0  0  0  0  0  0  0  0  0  0
   23.0590   49.3140   18.7200 C   0  0  0  0  0  0  0  0  0  0  0  0
   23.7250   49.9980   17.7020 C   0  0  0  0  0  0  0  0  0  0  0  0
   23.9200   51.3720   17.8160 C   0  0  0  0  0  0  0  0  0  0  0  0
   23.4580   52.0360   18.9070 N   0  0  0  0  0  0  0  0  0  0  0  0
   22.8080   51.3960   19.9150 C   0  0  0  0  0  0  0  0  0  0  0  0
   21.2660   48.0790   20.6050 N   0  0  0  0  0  0  0  0  0  0  0  0
   18.3651   43.8143   23.0963 H   0  0  0  0  0  0  0  0  0  0  0  0
   17.9093   42.7718   21.7063 H   0  0  0  0  0  0  0  0  0  0  0  0
   19.4877   43.6292   21.7063 H   0  0  0  0  0  0  0  0  0  0  0  0
   15.8086   44.0059   21.4946 H   0  0  0  0  0  0  0  0  0  0  0  0
   14.6736   45.8712   20.3026 H   0  0  0  0  0  0  0  0  0  0  0  0
   15.2950   48.7310   19.7130 H   0  0  0  0  0  0  0  0  0  0  0  0
   17.8837   49.7260   16.9066 H   0  0  0  0  0  0  0  0  0  0  0  0
   17.6170   51.9184   15.7517 H   0  0  0  0  0  0  0  0  0  0  0  0
   14.3297   53.6577   15.5034 H   0  0  0  0  0  0  0  0  0  0  0  0
   16.1405   53.8367   15.4519 H   0  0  0  0  0  0  0  0  0  0  0  0
   14.6090   52.3780   13.4010 H   0  0  0  0  0  0  0  0  0  0  0  0
   17.0187   51.9918   13.6095 H   0  0  0  0  0  0  0  0  0  0  0  0
   16.4204   52.6151   12.0094 H   0  0  0  0  0  0  0  0  0  0  0  0
   17.7666   54.2542   14.2104 H   0  0  0  0  0  0  0  0  0  0  0  0
   18.4813   53.7663   12.6258 H   0  0  0  0  0  0  0  0  0  0  0  0
   16.8160   55.0310   11.4990 H   0  0  0  0  0  0  0  0  0  0  0  0
   18.0937   56.5931   13.6756 H   0  0  0  0  0  0  0  0  0  0  0  0
   18.8543   56.1040   12.1235 H   0  0  0  0  0  0  0  0  0  0  0  0
   17.4673   57.2454   12.1235 H   0  0  0  0  0  0  0  0  0  0  0  0
   15.8509   55.8502   14.1941 H   0  0  0  0  0  0  0  0  0  0  0  0
   15.2413   56.4245   12.5911 H   0  0  0  0  0  0  0  0  0  0  0  0
   13.7831   54.6647   13.6344 H   0  0  0  0  0  0  0  0  0  0  0  0
   14.4814   54.1910   12.0222 H   0  0  0  0  0  0  0  0  0  0  0  0
   13.3121   51.5037   15.9710 H   0  0  0  0  0  0  0  0  0  0  0  0
   13.5799   49.2817   17.0631 H   0  0  0  0  0  0  0  0  0  0  0  0
   18.4771   47.8679   19.7952 H   0  0  0  0  0  0  0  0  0  0  0  0
   20.5710   45.3630   20.8090 H   0  0  0  0  0  0  0  0  0  0  0  0
   20.8545   49.3967   24.1738 H   0  0  0  0  0  0  0  0  0  0  0  0
   22.1706   50.7233   22.5080 H   0  0  0  0  0  0  0  0  0  0  0  0
   22.8991   48.2289   18.6359 H   0  0  0  0  0  0  0  0  0  0  0  0
   24.0925   49.4567   16.8177 H   0  0  0  0  0  0  0  0  0  0  0  0
   24.4485   51.9199   17.0220 H   0  0  0  0  0  0  0  0  0  0  0  0
   22.4493   51.9672   20.7839 H   0  0  0  0  0  0  0  0  0  0  0  0
  1  2  1  0
  2  3  2  0
  3  4  1  0
  4  5  2  0
  5  6  1  0
  6  7  1  0
  7  8  2  0
  7  9  1  0
  9 10  2  0
 10 11  1  0
 11 12  2  0
 12 13  1  0
 13 14  1  0
 14 15  1  0
 15 16  1  0
 16 17  1  0
 17 18  1  0
 17 19  1  0
 19 20  1  0
 12 21  1  0
 21 22  2  0
  5 23  1  0
 23 24  2  0
 24 25  1  0
 25 26  1  0
 26 27  2  0
 27 28  1  0
 28 29  2  0
 29 30  1  0
 30 31  1  0
 31 32  2  0
 32 33  1  0
 33 34  2  0
 34 35  1  0
 35 36  2  0
 30 37  2  0
 24  2  1  0
 37 26  1  0
 22  9  1  0
 36 31  1  0
 20 14  1  0
  1 38  1  0
  1 39  1  0
  1 40  1  0
  3 41  1  0
  4 42  1  0
  6 43  1  0
 10 44  1  0
 11 45  1  0
 13 46  1  0
 13 47  1  0
 14 48  1  6
 15 49  1  0
 15 50  1  0
 16 51  1  0
 16 52  1  0
 17 53  1  1
 18 54  1  0
 18 55  1  0
 18 56  1  0
 19 57  1  0
 19 58  1  0
 20 59  1  0
 20 60  1  0
 21 61  1  0
 22 62  1  0
 23 63  1  0
 25 64  1  0
 28 65  1  0
 29 66  1  0
 32 67  1  0
 33 68  1  0
 34 69  1  0
 36 70  1  0
M  CHG  2  14   1  17   1
M  END
>  <meeko>  (3) 
{"is_sidechain": [false], "free_energy": -9.655, "intermolecular_energy": -12.913, "internal_energy": -1.123}

$$$$

     RDKit          3D

 70 74  0  0  0  0  0  0  0  0999 V2000
   14.4540   45.5750   20.5920 C   0  0  0  0  0  0  0  0  0  0  0  0
   14.5330   46.8720   19.8320 C   0  0  0  0  0  0  0  0  0  0  0  0
   13.3700   47.6480   19.7120 C   0  0  0  0  0  0  0  0  0  0  0  0
   13.3750   48.8330   18.9710 C   0  0  0  0  0  0  0  0  0  0  0  0
   14.5470   49.2590   18.3320 C   0  0  0  0  0  0  0  0  0  0  0  0
   14.5470   50.4290   17.5020 N   0  0  0  0  0  0  0  0  0  0  0  0
   14.7880   50.3870   16.0880 C   0  0  0  0  0  0  0  0  0  0  0  0
   14.5260   49.3380   15.4360 O   0  0  0  0  0  0  0  0  0  0  0  0
   15.3070   51.5750   15.3810 C   0  0  0  0  0  0  0  0  0  0  0  0
   15.0390   52.8650   15.8650 C   0  0  0  0  0  0  0  0  0  0  0  0
   15.5000   53.9920   15.1770 C   0  0  0  0  0  0  0  0  0  0  0  0
   16.2180   53.8460   13.9810 C   0  0  0  0  0  0  0  0  0  0  0  0
   16.6710   55.0600   13.2020 C   0  0  0  0  0  0  0  0  0  0  0  0
   15.8400   55.3070   11.9930 N   0  0  2  0  0  4  0  0  0  0  0  0
   16.2360   56.5210   11.2370 C   0  0  0  0  0  0  0  0  0  0  0  0
   15.8320   57.8180   11.9580 C   0  0  0  0  0  0  0  0  0  0  0  0
   14.3810   57.8340   12.2280 N   0  0  2  0  0  4  0  0  0  0  0  0
   14.0090   59.0720   12.9340 C   0  0  0  0  0  0  0  0  0  0  0  0
   13.9850   56.6550   13.0260 C   0  0  0  0  0  0  0  0  0  0  0  0
   14.3970   55.3460   12.3240 C   0  0  0  0  0  0  0  0  0  0  0  0
   16.4850   52.5550   13.4970 C   0  0  0  0  0  0  0  0  0  0  0  0
   16.0410   51.4300   14.1950 C   0  0  0  0  0  0  0  0  0  0  0  0
   15.7170   48.5010   18.4610 C   0  0  0  0  0  0  0  0  0  0  0  0
   15.7330   47.3310   19.2360 C   0  0  0  0  0  0  0  0  0  0  0  0
   16.9770   46.6320   19.3960 N   0  0  0  0  0  0  0  0  0  0  0  0
   18.0690   47.1800   20.1460 C   0  0  0  0  0  0  0  0  0  0  0  0
   18.0220   47.1840   21.5050 N   0  0  0  0  0  0  0  0  0  0  0  0
   19.0500   47.6850   22.2340 C   0  0  0  0  0  0  0  0  0  0  0  0
   20.1710   48.2170   21.5950 C   0  0  0  0  0  0  0  0  0  0  0  0
   20.2100   48.2180   20.1910 C   0  0  0  0  0  0  0  0  0  0  0  0
   21.3540   48.7800   19.4230 C   0  0  0  0  0  0  0  0  0  0  0  0
   22.3770   47.9310   18.9640 C   0  0  0  0  0  0  0  0  0  0  0  0
   23.4320   48.4420   18.2070 C   0  0  0  0  0  0  0  0  0  0  0  0
   23.4610   49.8010   17.9040 C   0  0  0  0  0  0  0  0  0  0  0  0
   22.4660   50.6150   18.3410 N   0  0  0  0  0  0  0  0  0  0  0  0
   21.4270   50.1460   19.0830 C   0  0  0  0  0  0  0  0  0  0  0  0
   19.1600   47.6820   19.5110 N   0  0  0  0  0  0  0  0  0  0  0  0
   14.4666   45.7817   21.6723 H   0  0  0  0  0  0  0  0  0  0  0  0
   13.5224   45.0524   20.3295 H   0  0  0  0  0  0  0  0  0  0  0  0
   15.3153   44.9432   20.3295 H   0  0  0  0  0  0  0  0  0  0  0  0
   12.4439   47.3199   20.2067 H   0  0  0  0  0  0  0  0  0  0  0  0
   12.4565   49.4328   18.8892 H   0  0  0  0  0  0  0  0  0  0  0  0
   14.2700   51.3430   17.9280 H   0  0  0  0  0  0  0  0  0  0  0  0
   14.4617   52.9906   16.7929 H   0  0  0  0  0  0  0  0  0  0  0  0
   15.2986   54.9973   15.5756 H   0  0  0  0  0  0  0  0  0  0  0  0
   16.6106   55.9416   13.8571 H   0  0  0  0  0  0  0  0  0  0  0  0
   17.7017   54.8743   12.8655 H   0  0  0  0  0  0  0  0  0  0  0  0
   15.9740   54.4890   11.3500 H   0  0  0  0  0  0  0  0  0  0  0  0
   17.3282   56.5151   11.1060 H   0  0  0  0  0  0  0  0  0  0  0  0
   15.7140   56.4986   10.2690 H   0  0  0  0  0  0  0  0  0  0  0  0
   16.3774   57.8865   12.9108 H   0  0  0  0  0  0  0  0  0  0  0  0
   16.0814   58.6737   11.3133 H   0  0  0  0  0  0  0  0  0  0  0  0
   13.8660   57.8180   11.3160 H   0  0  0  0  0  0  0  0  0  0  0  0
   14.0594   58.9041   14.0199 H   0  0  0  0  0  0  0  0  0  0  0  0
   14.7050   59.8767   12.6547 H   0  0  0  0  0  0  0  0  0  0  0  0
   12.9847   59.3598   12.6547 H   0  0  0  0  0  0  0  0  0  0  0  0
   14.4758   56.7053   14.0091 H   0  0  0  0  0  0  0  0  0  0  0  0
   12.8909   56.6613   13.1393 H   0  0  0  0  0  0  0  0  0  0  0  0
   14.1652   54.5013   12.9895 H   0  0  0  0  0  0  0  0  0  0  0  0
   13.8367   55.2839   11.3794 H   0  0  0  0  0  0  0  0  0  0  0  0
   17.0483   52.4290   12.5606 H   0  0  0  0  0  0  0  0  0  0  0  0
   16.2684   50.4241   13.8122 H   0  0  0  0  0  0  0  0  0  0  0  0
   16.6346   48.8263   17.9489 H   0  0  0  0  0  0  0  0  0  0  0  0
   17.1850   45.8470   18.7370 H   0  0  0  0  0  0  0  0  0  0  0  0
   19.0001   47.6720   23.3328 H   0  0  0  0  0  0  0  0  0  0  0  0
   21.0076   48.6275   22.1795 H   0  0  0  0  0  0  0  0  0  0  0  0
   22.3453   46.8578   19.2032 H   0  0  0  0  0  0  0  0  0  0  0  0
   24.2337   47.7773   17.8527 H   0  0  0  0  0  0  0  0  0  0  0  0
   24.2898   50.2148   17.3108 H   0  0  0  0  0  0  0  0  0  0  0  0
   20.6395   50.8364   19.4195 H   0  0  0  0  0  0  0  0  0  0  0  0
  1  2  1  0
  2  3  2  0
  3  4  1  0
  4  5  2  0
  5  6  1  0
  6  7  1  0
  7  8  2  0
  7  9  1  0
  9 10  2  0
 10 11  1  0
 11 12  2  0
 12 13  1  0
 13 14  1  0
 14 15  1  0
 15 16  1  0
 16 17  1  0
 17 18  1  0
 17 19  1  0
 19 20  1  0
 12 21  1  0
 21 22  2  0
  5 23  1  0
 23 24  2  0
 24 25  1  0
 25 26  1  0
 26 27  2  0
 27 28  1  0
 28 29  2  0
 29 30  1  0
 30 31  1  0
 31 32  2  0
 32 33  1  0
 33 34  2  0
 34 35  1  0
 35 36  2  0
 30 37  2  0
 24  2  1  0
 37 26  1  0
 22  9  1  0
 36 31  1  0
 20 14  1  0
  1 38  1  0
  1 39  1  0
  1 40  1  0
  3 41  1  0
  4 42  1  0
  6 43  1  0
 10 44  1  0
 11 45  1  0
 13 46  1  0
 13 47  1  0
 14 48  1  1
 15 49  1  0
 15 50  1  0
 16 51  1  0
 16 52  1  0
 17 53  1  1
 18 54  1  0
 18 55  1  0
 18 56  1  0
 19 57  1  0
 19 58  1  0
 20 59  1  0
 20 60  1  0
 21 61  1  0
 22 62  1  0
 23 63  1  0
 25 64  1  0
 28 65  1  0
 29 66  1  0
 32 67  1  0
 33 68  1  0
 34 69  1  0
 36 70  1  0
M  CHG  2  14   1  17   1
M  END
>  <meeko>  (4) 
{"is_sidechain": [false], "free_energy": -9.583, "intermolecular_energy": -12.878, "internal_energy": -1.057}

$$$$

     RDKit          3D

 70 74  0  0  0  0  0  0  0  0999 V2000
   18.3130   43.6440   22.0080 C   0  0  0  0  0  0  0  0  0  0  0  0
   17.7930   44.8800   21.3240 C   0  0  0  0  0  0  0  0  0  0  0  0
   16.4060   45.0890   21.2860 C   0  0  0  0  0  0  0  0  0  0  0  0
   15.8670   46.1910   20.6160 C   0  0  0  0  0  0  0  0  0  0  0  0
   16.7100   47.1020   19.9660 C   0  0  0  0  0  0  0  0  0  0  0  0
   16.1690   48.1910   19.2060 N   0  0  0  0  0  0  0  0  0  0  0  0
   15.9260   48.1180   17.7940 C   0  0  0  0  0  0  0  0  0  0  0  0
   15.7060   47.0000   17.2510 O   0  0  0  0  0  0  0  0  0  0  0  0
   15.8970   49.3470   16.9750 C   0  0  0  0  0  0  0  0  0  0  0  0
   14.7700   49.6570   16.1970 C   0  0  0  0  0  0  0  0  0  0  0  0
   14.7550   50.8020   15.3940 C   0  0  0  0  0  0  0  0  0  0  0  0
   15.8770   51.6420   15.3380 C   0  0  0  0  0  0  0  0  0  0  0  0
   15.8910   52.8500   14.4290 C   0  0  0  0  0  0  0  0  0  0  0  0
   17.2670   53.2780   14.0660 N   0  0  2  0  0  4  0  0  0  0  0  0
   17.5500   54.7010   14.3820 C   0  0  0  0  0  0  0  0  0  0  0  0
   16.8390   55.6670   13.4190 C   0  0  0  0  0  0  0  0  0  0  0  0
   17.2040   55.3710   12.0200 N   0  0  2  0  0  4  0  0  0  0  0  0
   16.5040   56.2910   11.1070 C   0  0  0  0  0  0  0  0  0  0  0  0
   16.8770   53.9710   11.6800 C   0  0  0  0  0  0  0  0  0  0  0  0
   17.5700   52.9890   12.6450 C   0  0  0  0  0  0  0  0  0  0  0  0
   17.0050   51.3300   16.1150 C   0  0  0  0  0  0  0  0  0  0  0  0
   17.0110   50.1970   16.9330 C   0  0  0  0  0  0  0  0  0  0  0  0
   18.0970   46.9120   20.0140 C   0  0  0  0  0  0  0  0  0  0  0  0
   18.6500   45.8310   20.7190 C   0  0  0  0  0  0  0  0  0  0  0  0
   20.0800   45.7250   20.7980 N   0  0  0  0  0  0  0  0  0  0  0  0
   20.8460   46.4540   21.7660 C   0  0  0  0  0  0  0  0  0  0  0  0
   21.6810   45.7900   22.6070 N   0  0  0  0  0  0  0  0  0  0  0  0
   22.4260   46.4620   23.5210 C   0  0  0  0  0  0  0  0  0  0  0  0
   22.3340   47.8510   23.6170 C   0  0  0  0  0  0  0  0  0  0  0  0
   21.4620   48.5310   22.7510 C   0  0  0  0  0  0  0  0  0  0  0  0
   21.2840   50.0080   22.7930 C   0  0  0  0  0  0  0  0  0  0  0  0
   20.5210   50.5950   23.8180 C   0  0  0  0  0  0  0  0  0  0  0  0
   20.3830   51.9820   23.8900 C   0  0  0  0  0  0  0  0  0  0  0  0
   21.0130   52.7810   22.9400 C   0  0  0  0  0  0  0  0  0  0  0  0
   21.7560   52.2100   21.9570 N   0  0  0  0  0  0  0  0  0  0  0  0
   21.9060   50.8620   21.8610 C   0  0  0  0  0  0  0  0  0  0  0  0
   20.7570   47.8080   21.8390 N   0  0  0  0  0  0  0  0  0  0  0  0
   18.2569   43.7773   23.0985 H   0  0  0  0  0  0  0  0  0  0  0  0
   17.7032   42.7775   21.7127 H   0  0  0  0  0  0  0  0  0  0  0  0
   19.3589   43.4740   21.7127 H   0  0  0  0  0  0  0  0  0  0  0  0
   15.7350   44.3773   21.7893 H   0  0  0  0  0  0  0  0  0  0  0  0
   14.7777   46.3435   20.5990 H   0  0  0  0  0  0  0  0  0  0  0  0
   15.8510   49.0460   19.7180 H   0  0  0  0  0  0  0  0  0  0  0  0
   13.8923   48.9943   16.2192 H   0  0  0  0  0  0  0  0  0  0  0  0
   13.8592   51.0449   14.8036 H   0  0  0  0  0  0  0  0  0  0  0  0
   15.3444   52.6030   13.5069 H   0  0  0  0  0  0  0  0  0  0  0  0
   15.4170   53.6806   14.9725 H   0  0  0  0  0  0  0  0  0  0  0  0
   17.9340   52.7010   14.6340 H   0  0  0  0  0  0  0  0  0  0  0  0
   17.2100   54.9098   15.4071 H   0  0  0  0  0  0  0  0  0  0  0  0
   18.6335   54.8592   14.2772 H   0  0  0  0  0  0  0  0  0  0  0  0
   15.7507   55.5604   13.5386 H   0  0  0  0  0  0  0  0  0  0  0  0
   17.1498   56.6953   13.6558 H   0  0  0  0  0  0  0  0  0  0  0  0
   18.2330   55.5210   11.8980 H   0  0  0  0  0  0  0  0  0  0  0  0
   15.9405   57.0315   11.6936 H   0  0  0  0  0  0  0  0  0  0  0  0
   17.2391   56.8081   10.4728 H   0  0  0  0  0  0  0  0  0  0  0  0
   15.8096   55.7204   10.4728 H   0  0  0  0  0  0  0  0  0  0  0  0
   15.7880   53.8305   11.7453 H   0  0  0  0  0  0  0  0  0  0  0  0
   17.2327   53.7672   10.6593 H   0  0  0  0  0  0  0  0  0  0  0  0
   17.2310   51.9686   12.4129 H   0  0  0  0  0  0  0  0  0  0  0  0
   18.6560   53.0967   12.5072 H   0  0  0  0  0  0  0  0  0  0  0  0
   17.8900   51.9823   16.0793 H   0  0  0  0  0  0  0  0  0  0  0  0
   17.8949   49.9708   17.5475 H   0  0  0  0  0  0  0  0  0  0  0  0
   18.7607   47.6179   19.4933 H   0  0  0  0  0  0  0  0  0  0  0  0
   20.5880   45.3290   19.9740 H   0  0  0  0  0  0  0  0  0  0  0  0
   23.1044   45.9100   24.1881 H   0  0  0  0  0  0  0  0  0  0  0  0
   22.9328   48.4028   24.3566 H   0  0  0  0  0  0  0  0  0  0  0  0
   20.0299   49.9572   24.5676 H   0  0  0  0  0  0  0  0  0  0  0  0
   19.7821   52.4394   24.6898 H   0  0  0  0  0  0  0  0  0  0  0  0
   20.9090   53.8751   22.9855 H   0  0  0  0  0  0  0  0  0  0  0  0
   22.5164   50.4359   21.0511 H   0  0  0  0  0  0  0  0  0  0  0  0
  1  2  1  0
  2  3  2  0
  3  4  1  0
  4  5  2  0
  5  6  1  0
  6  7  1  0
  7  8  2  0
  7  9  1  0
  9 10  2  0
 10 11  1  0
 11 12  2  0
 12 13  1  0
 13 14  1  0
 14 15  1  0
 15 16  1  0
 16 17  1  0
 17 18  1  0
 17 19  1  0
 19 20  1  0
 12 21  1  0
 21 22  2  0
  5 23  1  0
 23 24  2  0
 24 25  1  0
 25 26  1  0
 26 27  2  0
 27 28  1  0
 28 29  2  0
 29 30  1  0
 30 31  1  0
 31 32  2  0
 32 33  1  0
 33 34  2  0
 34 35  1  0
 35 36  2  0
 30 37  2  0
 24  2  1  0
 37 26  1  0
 22  9  1  0
 36 31  1  0
 20 14  1  0
  1 38  1  0
  1 39  1  0
  1 40  1  0
  3 41  1  0
  4 42  1  0
  6 43  1  0
 10 44  1  0
 11 45  1  0
 13 46  1  0
 13 47  1  0
 14 48  1  6
 15 49  1  0
 15 50  1  0
 16 51  1  0
 16 52  1  0
 17 53  1  6
 18 54  1  0
 18 55  1  0
 18 56  1  0
 19 57  1  0
 19 58  1  0
 20 59  1  0
 20 60  1  0
 21 61  1  0
 22 62  1  0
 23 63  1  0
 25 64  1  0
 28 65  1  0
 29 66  1  0
 32 67  1  0
 33 68  1  0
 34 69  1  0
 36 70  1  0
M  CHG  2  14   1  17   1
M  END
>  <meeko>  (5) 
{"is_sidechain": [false], "free_energy": -9.332, "intermolecular_energy": -12.427, "internal_energy": -1.154}

$$$$
