
     RDKit          3D

 48 51  0  0  0  0  0  0  0  0999 V2000
   -1.2230  -40.6010   -5.6490 C   0  0  0  0  0  0  0  0  0  0  0  0
   -2.4700  -39.8830   -5.1570 C   0  0  0  0  0  0  0  0  0  0  0  0
   -3.6120  -40.8120   -4.9600 C   0  0  0  0  0  0  0  0  0  0  0  0
   -4.9400  -40.5150   -4.7630 C   0  0  0  0  0  0  0  0  0  0  0  0
   -5.6080  -41.7280   -4.6360 N   0  0  0  0  0  0  0  0  0  0  0  0
   -7.2810  -42.0080   -4.3260 P   0  0  2  0  0  5  0  0  0  0  0  0
   -7.4250  -41.8560   -2.8390 O   0  0  0  0  0  0  0  0  0  0  0  0
   -7.5990  -43.2640   -5.1040 O   0  0  0  0  0  1  0  0  0  0  0  0
   -7.9360  -40.7320   -5.0890 O   0  0  0  0  0  0  0  0  0  0  0  0
   -9.0170  -40.0890   -4.4330 C   0  0  0  0  0  0  0  0  0  0  0  0
   -9.0030  -38.5680   -4.5960 C   0  0  1  0  0  0  0  0  0  0  0  0
   -9.5350  -37.9400   -3.4040 O   0  0  0  0  0  0  0  0  0  0  0  0
   -8.7070  -36.7880   -3.1430 C   0  0  1  0  0  0  0  0  0  0  0  0
   -8.7970  -36.4610   -1.7350 N   0  0  0  0  0  0  0  0  0  0  0  0
   -8.6980  -37.3350   -0.6830 C   0  0  0  0  0  0  0  0  0  0  0  0
   -8.7690  -36.7210    0.4820 N   0  0  0  0  0  0  0  0  0  0  0  0
   -8.9520  -35.3900    0.1610 C   0  0  0  0  0  0  0  0  0  0  0  0
   -9.0980  -34.2390    0.9520 C   0  0  0  0  0  0  0  0  0  0  0  0
   -9.0890  -34.2650    2.3440 N   0  0  0  0  0  0  0  0  0  0  0  0
   -9.2250  -33.0400    0.3380 N   0  0  0  0  0  0  0  0  0  0  0  0
   -9.2330  -33.0160   -1.0140 C   0  0  0  0  0  0  0  0  0  0  0  0
   -9.1160  -34.0480   -1.8720 N   0  0  0  0  0  0  0  0  0  0  0  0
   -8.9690  -35.2090   -1.2130 C   0  0  0  0  0  0  0  0  0  0  0  0
   -7.3040  -37.2000   -3.5750 C   0  0  2  0  0  0  0  0  0  0  0  0
   -6.4280  -36.1090   -3.8470 O   0  0  0  0  0  0  0  0  0  0  0  0
   -7.5960  -38.0010   -4.8310 C   0  0  2  0  0  0  0  0  0  0  0  0
   -7.5980  -37.0990   -5.9530 O   0  0  0  0  0  0  0  0  0  0  0  0
   -4.6190  -42.6840   -4.7790 C   0  0  0  0  0  0  0  0  0  0  0  0
   -3.4210  -42.1710   -4.9620 N   0  0  0  0  0  0  0  0  0  0  0  0
   -0.6316  -40.9415   -4.7863 H   0  0  0  0  0  0  0  0  0  0  0  0
   -1.5159  -41.4688   -6.2583 H   0  0  0  0  0  0  0  0  0  0  0  0
   -0.6196  -39.9121   -6.2583 H   0  0  0  0  0  0  0  0  0  0  0  0
   -2.2420  -39.3938   -4.1985 H   0  0  0  0  0  0  0  0  0  0  0  0
   -2.7607  -39.1485   -5.9225 H   0  0  0  0  0  0  0  0  0  0  0  0
   -5.3877  -39.5114   -4.7151 H   0  0  0  0  0  0  0  0  0  0  0  0
   -9.9586  -40.4764   -4.8492 H   0  0  0  0  0  0  0  0  0  0  0  0
   -8.9208  -40.3032   -3.3583 H   0  0  0  0  0  0  0  0  0  0  0  0
   -9.6188  -38.3499   -5.4810 H   0  0  0  0  0  0  0  0  0  0  0  0
   -9.0120  -35.8827   -3.6884 H   0  0  0  0  0  0  0  0  0  0  0  0
   -8.5738  -38.4219   -0.7975 H   0  0  0  0  0  0  0  0  0  0  0  0
   -9.0130  -35.2090    2.7100 H   0  0  0  0  0  0  0  0  0  0  0  0
   -8.4680  -33.5630    2.7200 H   0  0  0  0  0  0  0  0  0  0  0  0
   -9.3505  -32.0235   -1.4736 H   0  0  0  0  0  0  0  0  0  0  0  0
   -6.7685  -37.7463   -2.7846 H   0  0  0  0  0  0  0  0  0  0  0  0
   -5.9760  -36.3640   -4.6840 H   0  0  0  0  0  0  0  0  0  0  0  0
   -6.8621  -38.7948   -5.0344 H   0  0  0  0  0  0  0  0  0  0  0  0
   -6.6750  -36.7040   -5.9260 H   0  0  0  0  0  0  0  0  0  0  0  0
   -4.8143  -43.7659   -4.7433 H   0  0  0  0  0  0  0  0  0  0  0  0
  1  2  1  0
  2  3  1  0
  3  4  2  0
  4  5  1  0
  5  6  1  0
  6  7  2  0
  6  8  1  6
  6  9  1  0
  9 10  1  0
 10 11  1  0
 11 12  1  0
 12 13  1  0
 13 14  1  0
 14 15  1  0
 15 16  2  0
 16 17  1  0
 17 18  2  0
 18 19  1  0
 18 20  1  0
 20 21  2  0
 21 22  1  0
 22 23  2  0
 13 24  1  0
 24 25  1  0
 24 26  1  0
 26 27  1  0
  5 28  1  0
 28 29  2  0
 29  3  1  0
 26 11  1  0
 23 14  1  0
 23 17  1  0
  1 30  1  0
  1 31  1  0
  1 32  1  0
  2 33  1  0
  2 34  1  0
  4 35  1  0
 10 36  1  0
 10 37  1  0
 11 38  1  6
 13 39  1  6
 15 40  1  0
 19 41  1  0
 19 42  1  0
 21 43  1  0
 24 44  1  1
 25 45  1  0
 26 46  1  6
 27 47  1  0
 28 48  1  0
M  CHG  1   8  -1
M  END
>  <meeko>  (1) 
{"is_sidechain": [true], "free_energy": 0.0, "intermolecular_energy": 0.0, "internal_energy": -12.77, "cluster_size": 1, "cluster_id": 1, "rank_in_cluster": 1}

$$$$

     RDKit          3D

 48 51  0  0  0  0  0  0  0  0999 V2000
   -1.2230  -40.6010   -5.6490 C   0  0  0  0  0  0  0  0  0  0  0  0
   -2.4700  -39.8830   -5.1570 C   0  0  0  0  0  0  0  0  0  0  0  0
   -3.6100  -40.8130   -4.9520 C   0  0  0  0  0  0  0  0  0  0  0  0
   -4.9440  -40.5200   -4.8000 C   0  0  0  0  0  0  0  0  0  0  0  0
   -5.6060  -41.7330   -4.6410 N   0  0  0  0  0  0  0  0  0  0  0  0
   -7.2840  -42.0150   -4.3620 P   0  0  2  0  0  5  0  0  0  0  0  0
   -7.4490  -41.8940   -2.8740 O   0  0  0  0  0  0  0  0  0  0  0  0
   -7.5940  -43.2540   -5.1700 O   0  0  0  0  0  1  0  0  0  0  0  0
   -7.9250  -40.7220   -5.1070 O   0  0  0  0  0  0  0  0  0  0  0  0
   -9.0060  -40.0830   -4.4480 C   0  0  0  0  0  0  0  0  0  0  0  0
   -8.9890  -38.5600   -4.5990 C   0  0  1  0  0  0  0  0  0  0  0  0
   -9.5090  -37.9410   -3.3960 O   0  0  0  0  0  0  0  0  0  0  0  0
   -8.6760  -36.7940   -3.1330 C   0  0  1  0  0  0  0  0  0  0  0  0
   -8.7530  -36.4780   -1.7220 N   0  0  0  0  0  0  0  0  0  0  0  0
   -8.6350  -37.3590   -0.6780 C   0  0  0  0  0  0  0  0  0  0  0  0
   -8.6970  -36.7550    0.4930 N   0  0  0  0  0  0  0  0  0  0  0  0
   -8.8940  -35.4230    0.1840 C   0  0  0  0  0  0  0  0  0  0  0  0
   -9.0400  -34.2790    0.9850 C   0  0  0  0  0  0  0  0  0  0  0  0
   -9.0150  -34.3160    2.3770 N   0  0  0  0  0  0  0  0  0  0  0  0
   -9.1830  -33.0770    0.3820 N   0  0  0  0  0  0  0  0  0  0  0  0
   -9.2070  -33.0430   -0.9690 C   0  0  0  0  0  0  0  0  0  0  0  0
   -9.0910  -34.0660   -1.8370 N   0  0  0  0  0  0  0  0  0  0  0  0
   -8.9290  -35.2310   -1.1880 C   0  0  0  0  0  0  0  0  0  0  0  0
   -7.2780  -37.2060   -3.5810 C   0  0  2  0  0  0  0  0  0  0  0  0
   -6.4020  -36.1140   -3.8520 O   0  0  0  0  0  0  0  0  0  0  0  0
   -7.5830  -37.9950   -4.8420 C   0  0  2  0  0  0  0  0  0  0  0  0
   -7.5930  -37.0830   -5.9560 O   0  0  0  0  0  0  0  0  0  0  0  0
   -4.6060  -42.6850   -4.7210 C   0  0  0  0  0  0  0  0  0  0  0  0
   -3.4080  -42.1690   -4.8940 N   0  0  0  0  0  0  0  0  0  0  0  0
   -0.6316  -40.9415   -4.7863 H   0  0  0  0  0  0  0  0  0  0  0  0
   -1.5159  -41.4688   -6.2583 H   0  0  0  0  0  0  0  0  0  0  0  0
   -0.6196  -39.9121   -6.2583 H   0  0  0  0  0  0  0  0  0  0  0  0
   -2.2402  -39.3886   -4.2016 H   0  0  0  0  0  0  0  0  0  0  0  0
   -2.7642  -39.1530   -5.9255 H   0  0  0  0  0  0  0  0  0  0  0  0
   -5.4003  -39.5191   -4.8034 H   0  0  0  0  0  0  0  0  0  0  0  0
   -9.9474  -40.4656   -4.8691 H   0  0  0  0  0  0  0  0  0  0  0  0
   -8.9124  -40.3061   -3.3749 H   0  0  0  0  0  0  0  0  0  0  0  0
   -9.6116  -38.3323   -5.4768 H   0  0  0  0  0  0  0  0  0  0  0  0
   -8.9832  -35.8834   -3.6683 H   0  0  0  0  0  0  0  0  0  0  0  0
   -8.5038  -38.4440   -0.8026 H   0  0  0  0  0  0  0  0  0  0  0  0
   -8.9140  -35.2610    2.7340 H   0  0  0  0  0  0  0  0  0  0  0  0
   -8.4060  -33.6040    2.7520 H   0  0  0  0  0  0  0  0  0  0  0  0
   -9.3387  -32.0480   -1.4190 H   0  0  0  0  0  0  0  0  0  0  0  0
   -6.7371  -37.7609   -2.8002 H   0  0  0  0  0  0  0  0  0  0  0  0
   -5.9540  -36.3660   -4.6920 H   0  0  0  0  0  0  0  0  0  0  0  0
   -6.8528  -38.7885   -5.0594 H   0  0  0  0  0  0  0  0  0  0  0  0
   -6.6670  -36.6940   -5.9360 H   0  0  0  0  0  0  0  0  0  0  0  0
   -4.7935  -43.7664   -4.6473 H   0  0  0  0  0  0  0  0  0  0  0  0
  1  2  1  0
  2  3  1  0
  3  4  2  0
  4  5  1  0
  5  6  1  0
  6  7  2  0
  6  8  1  6
  6  9  1  0
  9 10  1  0
 10 11  1  0
 11 12  1  0
 12 13  1  0
 13 14  1  0
 14 15  1  0
 15 16  2  0
 16 17  1  0
 17 18  2  0
 18 19  1  0
 18 20  1  0
 20 21  2  0
 21 22  1  0
 22 23  2  0
 13 24  1  0
 24 25  1  0
 24 26  1  0
 26 27  1  0
  5 28  1  0
 28 29  2  0
 29  3  1  0
 26 11  1  0
 23 14  1  0
 23 17  1  0
  1 30  1  0
  1 31  1  0
  1 32  1  0
  2 33  1  0
  2 34  1  0
  4 35  1  0
 10 36  1  0
 10 37  1  0
 11 38  1  6
 13 39  1  6
 15 40  1  0
 19 41  1  0
 19 42  1  0
 21 43  1  0
 24 44  1  1
 25 45  1  0
 26 46  1  6
 27 47  1  0
 28 48  1  0
M  CHG  1   8  -1
M  END
>  <meeko>  (2) 
{"is_sidechain": [true], "free_energy": 0.0, "intermolecular_energy": 0.0, "internal_energy": -12.76, "cluster_size": 1, "cluster_id": 2, "rank_in_cluster": 1}

$$$$

     RDKit          3D

 48 51  0  0  0  0  0  0  0  0999 V2000
   -1.2230  -40.6010   -5.6490 C   0  0  0  0  0  0  0  0  0  0  0  0
   -2.4700  -39.8830   -5.1570 C   0  0  0  0  0  0  0  0  0  0  0  0
   -3.6150  -40.8100   -4.9690 C   0  0  0  0  0  0  0  0  0  0  0  0
   -4.9360  -40.5120   -4.7330 C   0  0  0  0  0  0  0  0  0  0  0  0
   -5.6110  -41.7240   -4.6350 N   0  0  0  0  0  0  0  0  0  0  0  0
   -7.2790  -42.0030   -4.3000 P   0  0  2  0  0  5  0  0  0  0  0  0
   -7.4050  -41.8250   -2.8140 O   0  0  0  0  0  0  0  0  0  0  0  0
   -7.6020  -43.2750   -5.0500 O   0  0  0  0  0  1  0  0  0  0  0  0
   -7.9470  -40.7440   -5.0770 O   0  0  0  0  0  0  0  0  0  0  0  0
   -9.0220  -40.0930   -4.4210 C   0  0  0  0  0  0  0  0  0  0  0  0
   -9.0040  -38.5730   -4.5950 C   0  0  1  0  0  0  0  0  0  0  0  0
   -9.5370  -37.9360   -3.4080 O   0  0  0  0  0  0  0  0  0  0  0  0
   -8.7070  -36.7840   -3.1530 C   0  0  1  0  0  0  0  0  0  0  0  0
   -8.7980  -36.4470   -1.7480 N   0  0  0  0  0  0  0  0  0  0  0  0
   -8.7000  -37.3130   -0.6890 C   0  0  0  0  0  0  0  0  0  0  0  0
   -8.7730  -36.6920    0.4710 N   0  0  0  0  0  0  0  0  0  0  0  0
   -8.9550  -35.3630    0.1400 C   0  0  0  0  0  0  0  0  0  0  0  0
   -9.1020  -34.2060    0.9230 C   0  0  0  0  0  0  0  0  0  0  0  0
   -9.0940  -34.2230    2.3150 N   0  0  0  0  0  0  0  0  0  0  0  0
   -9.2280  -33.0120    0.3010 N   0  0  0  0  0  0  0  0  0  0  0  0
   -9.2340  -32.9970   -1.0520 C   0  0  0  0  0  0  0  0  0  0  0  0
   -9.1160  -34.0350   -1.9020 N   0  0  0  0  0  0  0  0  0  0  0  0
   -8.9710  -35.1910   -1.2340 C   0  0  0  0  0  0  0  0  0  0  0  0
   -7.3040  -37.2030   -3.5800 C   0  0  2  0  0  0  0  0  0  0  0  0
   -6.4250  -36.1150   -3.8580 O   0  0  0  0  0  0  0  0  0  0  0  0
   -7.5960  -38.0110   -4.8310 C   0  0  2  0  0  0  0  0  0  0  0  0
   -7.5940  -37.1170   -5.9600 O   0  0  0  0  0  0  0  0  0  0  0  0
   -4.6310  -42.6810   -4.8310 C   0  0  0  0  0  0  0  0  0  0  0  0
   -3.4340  -42.1700   -5.0210 N   0  0  0  0  0  0  0  0  0  0  0  0
   -0.6316  -40.9415   -4.7863 H   0  0  0  0  0  0  0  0  0  0  0  0
   -1.5159  -41.4688   -6.2583 H   0  0  0  0  0  0  0  0  0  0  0  0
   -0.6196  -39.9121   -6.2583 H   0  0  0  0  0  0  0  0  0  0  0  0
   -2.2440  -39.3998   -4.1950 H   0  0  0  0  0  0  0  0  0  0  0  0
   -2.7564  -39.1436   -5.9195 H   0  0  0  0  0  0  0  0  0  0  0  0
   -5.3749  -39.5077   -4.6396 H   0  0  0  0  0  0  0  0  0  0  0  0
   -9.9669  -40.4803   -4.8299 H   0  0  0  0  0  0  0  0  0  0  0  0
   -8.9211  -40.2996   -3.3453 H   0  0  0  0  0  0  0  0  0  0  0  0
   -9.6171  -38.3594   -5.4830 H   0  0  0  0  0  0  0  0  0  0  0  0
   -9.0094  -35.8816   -3.7046 H   0  0  0  0  0  0  0  0  0  0  0  0
   -8.5749  -38.4006   -0.7956 H   0  0  0  0  0  0  0  0  0  0  0  0
   -9.0100  -35.1630    2.6880 H   0  0  0  0  0  0  0  0  0  0  0  0
   -8.4800  -33.5120    2.6880 H   0  0  0  0  0  0  0  0  0  0  0  0
   -9.3505  -32.0077   -1.5187 H   0  0  0  0  0  0  0  0  0  0  0  0
   -6.7711  -37.7459   -2.7855 H   0  0  0  0  0  0  0  0  0  0  0  0
   -5.9700  -36.3790   -4.6910 H   0  0  0  0  0  0  0  0  0  0  0  0
   -6.8633  -38.8075   -5.0275 H   0  0  0  0  0  0  0  0  0  0  0  0
   -6.6710  -36.7210   -5.9310 H   0  0  0  0  0  0  0  0  0  0  0  0
   -4.8330  -43.7623   -4.8282 H   0  0  0  0  0  0  0  0  0  0  0  0
  1  2  1  0
  2  3  1  0
  3  4  2  0
  4  5  1  0
  5  6  1  0
  6  7  2  0
  6  8  1  6
  6  9  1  0
  9 10  1  0
 10 11  1  0
 11 12  1  0
 12 13  1  0
 13 14  1  0
 14 15  1  0
 15 16  2  0
 16 17  1  0
 17 18  2  0
 18 19  1  0
 18 20  1  0
 20 21  2  0
 21 22  1  0
 22 23  2  0
 13 24  1  0
 24 25  1  0
 24 26  1  0
 26 27  1  0
  5 28  1  0
 28 29  2  0
 29  3  1  0
 26 11  1  0
 23 14  1  0
 23 17  1  0
  1 30  1  0
  1 31  1  0
  1 32  1  0
  2 33  1  0
  2 34  1  0
  4 35  1  0
 10 36  1  0
 10 37  1  0
 11 38  1  6
 13 39  1  6
 15 40  1  0
 19 41  1  0
 19 42  1  0
 21 43  1  0
 24 44  1  1
 25 45  1  0
 26 46  1  6
 27 47  1  0
 28 48  1  0
M  CHG  1   8  -1
M  END
>  <meeko>  (3) 
{"is_sidechain": [true], "free_energy": 0.0, "intermolecular_energy": 0.0, "internal_energy": -12.77, "cluster_size": 1, "cluster_id": 3, "rank_in_cluster": 1}

$$$$

     RDKit          3D

 48 51  0  0  0  0  0  0  0  0999 V2000
   -1.2230  -40.6010   -5.6490 C   0  0  0  0  0  0  0  0  0  0  0  0
   -2.4700  -39.8830   -5.1570 C   0  0  0  0  0  0  0  0  0  0  0  0
   -3.6140  -40.8110   -4.9670 C   0  0  0  0  0  0  0  0  0  0  0  0
   -4.9350  -40.5130   -4.7280 C   0  0  0  0  0  0  0  0  0  0  0  0
   -5.6090  -41.7250   -4.6290 N   0  0  0  0  0  0  0  0  0  0  0  0
   -7.2760  -42.0050   -4.2900 P   0  0  2  0  0  5  0  0  0  0  0  0
   -7.4010  -41.8190   -2.8050 O   0  0  0  0  0  0  0  0  0  0  0  0
   -7.5990  -43.2800   -5.0340 O   0  0  0  0  0  1  0  0  0  0  0  0
   -7.9470  -40.7500   -5.0730 O   0  0  0  0  0  0  0  0  0  0  0  0
   -9.0260  -40.1000   -4.4200 C   0  0  0  0  0  0  0  0  0  0  0  0
   -9.0080  -38.5800   -4.5940 C   0  0  1  0  0  0  0  0  0  0  0  0
   -9.5410  -37.9440   -3.4060 O   0  0  0  0  0  0  0  0  0  0  0  0
   -8.7120  -36.7920   -3.1510 C   0  0  1  0  0  0  0  0  0  0  0  0
   -8.8050  -36.4550   -1.7460 N   0  0  0  0  0  0  0  0  0  0  0  0
   -8.7170  -37.3240   -0.6880 C   0  0  0  0  0  0  0  0  0  0  0  0
   -8.7870  -36.7020    0.4740 N   0  0  0  0  0  0  0  0  0  0  0  0
   -8.9580  -35.3720    0.1430 C   0  0  0  0  0  0  0  0  0  0  0  0
   -9.0980  -34.2150    0.9270 C   0  0  0  0  0  0  0  0  0  0  0  0
   -9.0940  -34.2330    2.3190 N   0  0  0  0  0  0  0  0  0  0  0  0
   -9.2120  -33.0190    0.3050 N   0  0  0  0  0  0  0  0  0  0  0  0
   -9.2150  -33.0030   -1.0470 C   0  0  0  0  0  0  0  0  0  0  0  0
   -9.1030  -34.0410   -1.8980 N   0  0  0  0  0  0  0  0  0  0  0  0
   -8.9680  -35.1990   -1.2310 C   0  0  0  0  0  0  0  0  0  0  0  0
   -7.3080  -37.2100   -3.5770 C   0  0  2  0  0  0  0  0  0  0  0  0
   -6.4300  -36.1220   -3.8540 O   0  0  0  0  0  0  0  0  0  0  0  0
   -7.5990  -38.0170   -4.8290 C   0  0  2  0  0  0  0  0  0  0  0  0
   -7.5960  -37.1230   -5.9570 O   0  0  0  0  0  0  0  0  0  0  0  0
   -4.6300  -42.6810   -4.8290 C   0  0  0  0  0  0  0  0  0  0  0  0
   -3.4330  -42.1700   -5.0210 N   0  0  0  0  0  0  0  0  0  0  0  0
   -0.6316  -40.9415   -4.7863 H   0  0  0  0  0  0  0  0  0  0  0  0
   -1.5159  -41.4688   -6.2583 H   0  0  0  0  0  0  0  0  0  0  0  0
   -0.6196  -39.9121   -6.2583 H   0  0  0  0  0  0  0  0  0  0  0  0
   -2.2436  -39.3984   -4.1958 H   0  0  0  0  0  0  0  0  0  0  0  0
   -2.7575  -39.1446   -5.9200 H   0  0  0  0  0  0  0  0  0  0  0  0
   -5.3740  -39.5089   -4.6333 H   0  0  0  0  0  0  0  0  0  0  0  0
   -9.9691  -40.4880   -4.8324 H   0  0  0  0  0  0  0  0  0  0  0  0
   -8.9295  -40.3071   -3.3440 H   0  0  0  0  0  0  0  0  0  0  0  0
   -9.6205  -38.3662   -5.4823 H   0  0  0  0  0  0  0  0  0  0  0  0
   -9.0139  -35.8899   -3.7033 H   0  0  0  0  0  0  0  0  0  0  0  0
   -8.6015  -38.4126   -0.7956 H   0  0  0  0  0  0  0  0  0  0  0  0
   -8.9810  -35.1700    2.6910 H   0  0  0  0  0  0  0  0  0  0  0  0
   -8.5040  -33.5040    2.6940 H   0  0  0  0  0  0  0  0  0  0  0  0
   -9.3231  -32.0125   -1.5130 H   0  0  0  0  0  0  0  0  0  0  0  0
   -6.7754  -37.7530   -2.7823 H   0  0  0  0  0  0  0  0  0  0  0  0
   -5.9750  -36.3840   -4.6870 H   0  0  0  0  0  0  0  0  0  0  0  0
   -6.8659  -38.8132   -5.0257 H   0  0  0  0  0  0  0  0  0  0  0  0
   -6.6740  -36.7260   -5.9270 H   0  0  0  0  0  0  0  0  0  0  0  0
   -4.8322  -43.7623   -4.8277 H   0  0  0  0  0  0  0  0  0  0  0  0
  1  2  1  0
  2  3  1  0
  3  4  2  0
  4  5  1  0
  5  6  1  0
  6  7  2  0
  6  8  1  6
  6  9  1  0
  9 10  1  0
 10 11  1  0
 11 12  1  0
 12 13  1  0
 13 14  1  0
 14 15  1  0
 15 16  2  0
 16 17  1  0
 17 18  2  0
 18 19  1  0
 18 20  1  0
 20 21  2  0
 21 22  1  0
 22 23  2  0
 13 24  1  0
 24 25  1  0
 24 26  1  0
 26 27  1  0
  5 28  1  0
 28 29  2  0
 29  3  1  0
 26 11  1  0
 23 14  1  0
 23 17  1  0
  1 30  1  0
  1 31  1  0
  1 32  1  0
  2 33  1  0
  2 34  1  0
  4 35  1  0
 10 36  1  0
 10 37  1  0
 11 38  1  6
 13 39  1  6
 15 40  1  0
 19 41  1  0
 19 42  1  0
 21 43  1  0
 24 44  1  1
 25 45  1  0
 26 46  1  6
 27 47  1  0
 28 48  1  0
M  CHG  1   8  -1
M  END
>  <meeko>  (4) 
{"is_sidechain": [true], "free_energy": 0.0, "intermolecular_energy": 0.0, "internal_energy": -12.77, "cluster_size": 1, "cluster_id": 4, "rank_in_cluster": 1}

$$$$

     RDKit          3D

 48 51  0  0  0  0  0  0  0  0999 V2000
   -1.2230  -40.6010   -5.6490 C   0  0  0  0  0  0  0  0  0  0  0  0
   -2.4700  -39.8830   -5.1570 C   0  0  0  0  0  0  0  0  0  0  0  0
   -3.6140  -40.8110   -4.9650 C   0  0  0  0  0  0  0  0  0  0  0  0
   -4.9380  -40.5130   -4.7490 C   0  0  0  0  0  0  0  0  0  0  0  0
   -5.6100  -41.7250   -4.6370 N   0  0  0  0  0  0  0  0  0  0  0  0
   -7.2810  -42.0050   -4.3160 P   0  0  2  0  0  5  0  0  0  0  0  0
   -7.4200  -41.8200   -2.8320 O   0  0  0  0  0  0  0  0  0  0  0  0
   -7.5970  -43.2790   -5.0640 O   0  0  0  0  0  1  0  0  0  0  0  0
   -7.9430  -40.7490   -5.1040 O   0  0  0  0  0  0  0  0  0  0  0  0
   -9.0350  -40.1070   -4.4670 C   0  0  0  0  0  0  0  0  0  0  0  0
   -9.0110  -38.5840   -4.6170 C   0  0  1  0  0  0  0  0  0  0  0  0
   -9.5320  -37.9630   -3.4160 O   0  0  0  0  0  0  0  0  0  0  0  0
   -8.6950  -36.8200   -3.1490 C   0  0  1  0  0  0  0  0  0  0  0  0
   -8.7750  -36.5040   -1.7380 N   0  0  0  0  0  0  0  0  0  0  0  0
   -8.6530  -37.3840   -0.6930 C   0  0  0  0  0  0  0  0  0  0  0  0
   -8.7220  -36.7810    0.4770 N   0  0  0  0  0  0  0  0  0  0  0  0
   -8.9270  -35.4500    0.1670 C   0  0  0  0  0  0  0  0  0  0  0  0
   -9.0820  -34.3070    0.9690 C   0  0  0  0  0  0  0  0  0  0  0  0
   -9.0590  -34.3440    2.3600 N   0  0  0  0  0  0  0  0  0  0  0  0
   -9.2320  -33.1060    0.3650 N   0  0  0  0  0  0  0  0  0  0  0  0
   -9.2540  -33.0720   -0.9860 C   0  0  0  0  0  0  0  0  0  0  0  0
   -9.1300  -34.0950   -1.8530 N   0  0  0  0  0  0  0  0  0  0  0  0
   -8.9610  -35.2590   -1.2040 C   0  0  0  0  0  0  0  0  0  0  0  0
   -7.2970  -37.2380   -3.5920 C   0  0  2  0  0  0  0  0  0  0  0  0
   -6.4140  -36.1510   -3.8580 O   0  0  0  0  0  0  0  0  0  0  0  0
   -7.6010  -38.0250   -4.8540 C   0  0  2  0  0  0  0  0  0  0  0  0
   -7.6010  -37.1130   -5.9680 O   0  0  0  0  0  0  0  0  0  0  0  0
   -4.6260  -42.6820   -4.8070 C   0  0  0  0  0  0  0  0  0  0  0  0
   -3.4280  -42.1700   -4.9930 N   0  0  0  0  0  0  0  0  0  0  0  0
   -0.6316  -40.9415   -4.7863 H   0  0  0  0  0  0  0  0  0  0  0  0
   -1.5159  -41.4688   -6.2583 H   0  0  0  0  0  0  0  0  0  0  0  0
   -0.6196  -39.9121   -6.2583 H   0  0  0  0  0  0  0  0  0  0  0  0
   -2.2431  -39.3972   -4.1965 H   0  0  0  0  0  0  0  0  0  0  0  0
   -2.7582  -39.1458   -5.9208 H   0  0  0  0  0  0  0  0  0  0  0  0
   -5.3810  -39.5086   -4.6783 H   0  0  0  0  0  0  0  0  0  0  0  0
   -9.9688  -40.4868   -4.9072 H   0  0  0  0  0  0  0  0  0  0  0  0
   -8.9635  -40.3304   -3.3923 H   0  0  0  0  0  0  0  0  0  0  0  0
   -9.6297  -38.3535   -5.4968 H   0  0  0  0  0  0  0  0  0  0  0  0
   -8.9969  -35.9080   -3.6848 H   0  0  0  0  0  0  0  0  0  0  0  0
   -8.5136  -38.4681   -0.8171 H   0  0  0  0  0  0  0  0  0  0  0  0
   -8.9830  -35.2910    2.7180 H   0  0  0  0  0  0  0  0  0  0  0  0
   -8.4300  -33.6480    2.7360 H   0  0  0  0  0  0  0  0  0  0  0  0
   -9.3912  -32.0780   -1.4366 H   0  0  0  0  0  0  0  0  0  0  0  0
   -6.7616  -37.7956   -2.8094 H   0  0  0  0  0  0  0  0  0  0  0  0
   -5.9640  -36.4050   -4.6960 H   0  0  0  0  0  0  0  0  0  0  0  0
   -6.8741  -38.8223   -5.0685 H   0  0  0  0  0  0  0  0  0  0  0  0
   -6.6760  -36.7230   -5.9390 H   0  0  0  0  0  0  0  0  0  0  0  0
   -4.8250  -43.7637   -4.7886 H   0  0  0  0  0  0  0  0  0  0  0  0
  1  2  1  0
  2  3  1  0
  3  4  2  0
  4  5  1  0
  5  6  1  0
  6  7  2  0
  6  8  1  6
  6  9  1  0
  9 10  1  0
 10 11  1  0
 11 12  1  0
 12 13  1  0
 13 14  1  0
 14 15  1  0
 15 16  2  0
 16 17  1  0
 17 18  2  0
 18 19  1  0
 18 20  1  0
 20 21  2  0
 21 22  1  0
 22 23  2  0
 13 24  1  0
 24 25  1  0
 24 26  1  0
 26 27  1  0
  5 28  1  0
 28 29  2  0
 29  3  1  0
 26 11  1  0
 23 14  1  0
 23 17  1  0
  1 30  1  0
  1 31  1  0
  1 32  1  0
  2 33  1  0
  2 34  1  0
  4 35  1  0
 10 36  1  0
 10 37  1  0
 11 38  1  6
 13 39  1  6
 15 40  1  0
 19 41  1  0
 19 42  1  0
 21 43  1  0
 24 44  1  1
 25 45  1  0
 26 46  1  6
 27 47  1  0
 28 48  1  0
M  CHG  1   8  -1
M  END
>  <meeko>  (5) 
{"is_sidechain": [true], "free_energy": 0.0, "intermolecular_energy": 0.0, "internal_energy": -12.77, "cluster_size": 1, "cluster_id": 5, "rank_in_cluster": 1}

$$$$

     RDKit          3D

 48 51  0  0  0  0  0  0  0  0999 V2000
   -1.2230  -40.6010   -5.6490 C   0  0  0  0  0  0  0  0  0  0  0  0
   -2.4700  -39.8830   -5.1570 C   0  0  0  0  0  0  0  0  0  0  0  0
   -3.6160  -40.8100   -4.9720 C   0  0  0  0  0  0  0  0  0  0  0  0
   -4.9330  -40.5110   -4.7170 C   0  0  0  0  0  0  0  0  0  0  0  0
   -5.6110  -41.7220   -4.6330 N   0  0  0  0  0  0  0  0  0  0  0  0
   -7.2760  -42.0020   -4.2840 P   0  0  2  0  0  5  0  0  0  0  0  0
   -7.3960  -41.7960   -2.8020 O   0  0  0  0  0  0  0  0  0  0  0  0
   -7.5980  -43.2890   -5.0090 O   0  0  0  0  0  1  0  0  0  0  0  0
   -7.9540  -40.7600   -5.0820 O   0  0  0  0  0  0  0  0  0  0  0  0
   -9.0420  -40.1150   -4.4420 C   0  0  0  0  0  0  0  0  0  0  0  0
   -9.0170  -38.5930   -4.5970 C   0  0  1  0  0  0  0  0  0  0  0  0
   -9.5510  -37.9690   -3.4030 O   0  0  0  0  0  0  0  0  0  0  0  0
   -8.7170  -36.8240   -3.1310 C   0  0  1  0  0  0  0  0  0  0  0  0
   -8.8120  -36.5050   -1.7220 N   0  0  0  0  0  0  0  0  0  0  0  0
   -8.7410  -37.3880   -0.6750 C   0  0  0  0  0  0  0  0  0  0  0  0
   -8.8090  -36.7810    0.4940 N   0  0  0  0  0  0  0  0  0  0  0  0
   -8.9610  -35.4440    0.1800 C   0  0  0  0  0  0  0  0  0  0  0  0
   -9.0900  -34.2950    0.9780 C   0  0  0  0  0  0  0  0  0  0  0  0
   -9.0930  -34.3320    2.3700 N   0  0  0  0  0  0  0  0  0  0  0  0
   -9.1850  -33.0900    0.3720 N   0  0  0  0  0  0  0  0  0  0  0  0
   -9.1810  -33.0570   -0.9800 C   0  0  0  0  0  0  0  0  0  0  0  0
   -9.0780  -34.0850   -1.8440 N   0  0  0  0  0  0  0  0  0  0  0  0
   -8.9620  -35.2530   -1.1920 C   0  0  0  0  0  0  0  0  0  0  0  0
   -7.3140  -37.2440   -3.5580 C   0  0  2  0  0  0  0  0  0  0  0  0
   -6.4290  -36.1570   -3.8180 O   0  0  0  0  0  0  0  0  0  0  0  0
   -7.6050  -38.0340   -4.8200 C   0  0  2  0  0  0  0  0  0  0  0  0
   -7.5940  -37.1260   -5.9370 O   0  0  0  0  0  0  0  0  0  0  0  0
   -4.6380  -42.6790   -4.8570 C   0  0  0  0  0  0  0  0  0  0  0  0
   -3.4400  -42.1680   -5.0510 N   0  0  0  0  0  0  0  0  0  0  0  0
   -0.6316  -40.9415   -4.7863 H   0  0  0  0  0  0  0  0  0  0  0  0
   -1.5159  -41.4688   -6.2583 H   0  0  0  0  0  0  0  0  0  0  0  0
   -0.6196  -39.9121   -6.2583 H   0  0  0  0  0  0  0  0  0  0  0  0
   -2.2447  -39.4018   -4.1938 H   0  0  0  0  0  0  0  0  0  0  0  0
   -2.7551  -39.1419   -5.9183 H   0  0  0  0  0  0  0  0  0  0  0  0
   -5.3671  -39.5069   -4.6016 H   0  0  0  0  0  0  0  0  0  0  0  0
   -9.9783  -40.4952   -4.8765 H   0  0  0  0  0  0  0  0  0  0  0  0
   -8.9656  -40.3351   -3.3670 H   0  0  0  0  0  0  0  0  0  0  0  0
   -9.6259  -38.3655   -5.4844 H   0  0  0  0  0  0  0  0  0  0  0  0
   -9.0130  -35.9134   -3.6725 H   0  0  0  0  0  0  0  0  0  0  0  0
   -8.6391  -38.4765   -0.7962 H   0  0  0  0  0  0  0  0  0  0  0  0
   -9.0020  -35.2760    2.7300 H   0  0  0  0  0  0  0  0  0  0  0  0
   -8.4900  -33.6200    2.7580 H   0  0  0  0  0  0  0  0  0  0  0  0
   -9.2741  -32.0593   -1.4337 H   0  0  0  0  0  0  0  0  0  0  0  0
   -6.7866  -37.7997   -2.7687 H   0  0  0  0  0  0  0  0  0  0  0  0
   -5.9730  -36.4110   -4.6530 H   0  0  0  0  0  0  0  0  0  0  0  0
   -6.8753  -38.8315   -5.0238 H   0  0  0  0  0  0  0  0  0  0  0  0
   -6.6700  -36.7350   -5.9000 H   0  0  0  0  0  0  0  0  0  0  0  0
   -4.8443  -43.7594   -4.8716 H   0  0  0  0  0  0  0  0  0  0  0  0
  1  2  1  0
  2  3  1  0
  3  4  2  0
  4  5  1  0
  5  6  1  0
  6  7  2  0
  6  8  1  6
  6  9  1  0
  9 10  1  0
 10 11  1  0
 11 12  1  0
 12 13  1  0
 13 14  1  0
 14 15  1  0
 15 16  2  0
 16 17  1  0
 17 18  2  0
 18 19  1  0
 18 20  1  0
 20 21  2  0
 21 22  1  0
 22 23  2  0
 13 24  1  0
 24 25  1  0
 24 26  1  0
 26 27  1  0
  5 28  1  0
 28 29  2  0
 29  3  1  0
 26 11  1  0
 23 14  1  0
 23 17  1  0
  1 30  1  0
  1 31  1  0
  1 32  1  0
  2 33  1  0
  2 34  1  0
  4 35  1  0
 10 36  1  0
 10 37  1  0
 11 38  1  6
 13 39  1  6
 15 40  1  0
 19 41  1  0
 19 42  1  0
 21 43  1  0
 24 44  1  1
 25 45  1  0
 26 46  1  6
 27 47  1  0
 28 48  1  0
M  CHG  1   8  -1
M  END
>  <meeko>  (6) 
{"is_sidechain": [true], "free_energy": 0.0, "intermolecular_energy": 0.0, "internal_energy": -12.77, "cluster_size": 1, "cluster_id": 6, "rank_in_cluster": 1}

$$$$

     RDKit          3D

 48 51  0  0  0  0  0  0  0  0999 V2000
   -1.2230  -40.6010   -5.6490 C   0  0  0  0  0  0  0  0  0  0  0  0
   -2.4700  -39.8830   -5.1570 C   0  0  0  0  0  0  0  0  0  0  0  0
   -3.6170  -40.8090   -4.9760 C   0  0  0  0  0  0  0  0  0  0  0  0
   -4.7800  -40.6130   -4.2690 C   0  0  0  0  0  0  0  0  0  0  0  0
   -5.5350  -41.7730   -4.4070 N   0  0  0  0  0  0  0  0  0  0  0  0
   -7.0670  -42.1490   -3.7120 P   0  0  2  0  0  5  0  0  0  0  0  0
   -6.7410  -42.7750   -2.3860 O   0  0  0  0  0  0  0  0  0  0  0  0
   -7.8260  -42.8280   -4.8280 O   0  0  0  0  0  1  0  0  0  0  0  0
   -7.6640  -40.6540   -3.4970 O   0  0  0  0  0  0  0  0  0  0  0  0
   -8.7470  -40.2800   -4.3330 C   0  0  0  0  0  0  0  0  0  0  0  0
   -8.8560  -38.7670   -4.5390 C   0  0  1  0  0  0  0  0  0  0  0  0
   -9.4190  -38.1490   -3.3560 O   0  0  0  0  0  0  0  0  0  0  0  0
   -8.6810  -36.9290   -3.1410 C   0  0  1  0  0  0  0  0  0  0  0  0
   -8.7770  -36.5680   -1.7420 N   0  0  0  0  0  0  0  0  0  0  0  0
   -8.6840  -37.4180   -0.6690 C   0  0  0  0  0  0  0  0  0  0  0  0
   -8.7590  -36.7770    0.4810 N   0  0  0  0  0  0  0  0  0  0  0  0
   -8.9390  -35.4530    0.1280 C   0  0  0  0  0  0  0  0  0  0  0  0
   -9.0870  -34.2840    0.8910 C   0  0  0  0  0  0  0  0  0  0  0  0
   -9.0840  -34.2780    2.2830 N   0  0  0  0  0  0  0  0  0  0  0  0
   -9.2090  -33.1000    0.2490 N   0  0  0  0  0  0  0  0  0  0  0  0
   -9.2110  -33.1070   -1.1030 C   0  0  0  0  0  0  0  0  0  0  0  0
   -9.0910  -34.1590   -1.9360 N   0  0  0  0  0  0  0  0  0  0  0  0
   -8.9500  -35.3040   -1.2490 C   0  0  0  0  0  0  0  0  0  0  0  0
   -7.2560  -37.2420   -3.5840 C   0  0  2  0  0  0  0  0  0  0  0  0
   -6.4730  -36.0930   -3.9010 O   0  0  0  0  0  0  0  0  0  0  0  0
   -7.5010  -38.0980   -4.8130 C   0  0  2  0  0  0  0  0  0  0  0  0
   -7.5900  -37.2330   -5.9590 O   0  0  0  0  0  0  0  0  0  0  0  0
   -4.7630  -42.5930   -5.2100 C   0  0  0  0  0  0  0  0  0  0  0  0
   -3.6140  -42.0530   -5.5550 N   0  0  0  0  0  0  0  0  0  0  0  0
   -0.6316  -40.9415   -4.7863 H   0  0  0  0  0  0  0  0  0  0  0  0
   -1.5159  -41.4688   -6.2583 H   0  0  0  0  0  0  0  0  0  0  0  0
   -0.6196  -39.9121   -6.2583 H   0  0  0  0  0  0  0  0  0  0  0  0
   -2.2456  -39.4044   -4.1923 H   0  0  0  0  0  0  0  0  0  0  0  0
   -2.7532  -39.1398   -5.9169 H   0  0  0  0  0  0  0  0  0  0  0  0
   -5.0595  -39.7121   -3.7031 H   0  0  0  0  0  0  0  0  0  0  0  0
   -8.6118  -40.7575   -5.3147 H   0  0  0  0  0  0  0  0  0  0  0  0
   -9.6717  -40.6095   -3.8367 H   0  0  0  0  0  0  0  0  0  0  0  0
   -9.4995  -38.6233   -5.4195 H   0  0  0  0  0  0  0  0  0  0  0  0
   -9.0641  -36.0670   -3.7069 H   0  0  0  0  0  0  0  0  0  0  0  0
   -8.5612  -38.5075   -0.7577 H   0  0  0  0  0  0  0  0  0  0  0  0
   -9.0750  -35.2160    2.6720 H   0  0  0  0  0  0  0  0  0  0  0  0
   -8.4170  -33.6120    2.6470 H   0  0  0  0  0  0  0  0  0  0  0  0
   -9.3256  -32.1254   -1.5860 H   0  0  0  0  0  0  0  0  0  0  0  0
   -6.6685  -37.7220   -2.7875 H   0  0  0  0  0  0  0  0  0  0  0  0
   -6.0250  -36.3310   -4.7450 H   0  0  0  0  0  0  0  0  0  0  0  0
   -6.7090  -38.8364   -5.0069 H   0  0  0  0  0  0  0  0  0  0  0  0
   -6.7030  -36.7610   -5.9540 H   0  0  0  0  0  0  0  0  0  0  0  0
   -5.0786  -43.5974   -5.5287 H   0  0  0  0  0  0  0  0  0  0  0  0
  1  2  1  0
  2  3  1  0
  3  4  2  0
  4  5  1  0
  5  6  1  0
  6  7  2  0
  6  8  1  6
  6  9  1  0
  9 10  1  0
 10 11  1  0
 11 12  1  0
 12 13  1  0
 13 14  1  0
 14 15  1  0
 15 16  2  0
 16 17  1  0
 17 18  2  0
 18 19  1  0
 18 20  1  0
 20 21  2  0
 21 22  1  0
 22 23  2  0
 13 24  1  0
 24 25  1  0
 24 26  1  0
 26 27  1  0
  5 28  1  0
 28 29  2  0
 29  3  1  0
 26 11  1  0
 23 14  1  0
 23 17  1  0
  1 30  1  0
  1 31  1  0
  1 32  1  0
  2 33  1  0
  2 34  1  0
  4 35  1  0
 10 36  1  0
 10 37  1  0
 11 38  1  6
 13 39  1  6
 15 40  1  0
 19 41  1  0
 19 42  1  0
 21 43  1  0
 24 44  1  1
 25 45  1  0
 26 46  1  6
 27 47  1  0
 28 48  1  0
M  CHG  1   8  -1
M  END
>  <meeko>  (7) 
{"is_sidechain": [true], "free_energy": 0.0, "intermolecular_energy": 0.0, "internal_energy": -12.61, "cluster_size": 1, "cluster_id": 7, "rank_in_cluster": 1}

$$$$

     RDKit          3D

 48 51  0  0  0  0  0  0  0  0999 V2000
   -1.2230  -40.6010   -5.6490 C   0  0  0  0  0  0  0  0  0  0  0  0
   -2.4700  -39.8830   -5.1570 C   0  0  0  0  0  0  0  0  0  0  0  0
   -3.6140  -40.8110   -4.9660 C   0  0  0  0  0  0  0  0  0  0  0  0
   -4.9360  -40.5130   -4.7350 C   0  0  0  0  0  0  0  0  0  0  0  0
   -5.6090  -41.7250   -4.6300 N   0  0  0  0  0  0  0  0  0  0  0  0
   -7.2770  -42.0050   -4.2970 P   0  0  2  0  0  5  0  0  0  0  0  0
   -7.4040  -41.8320   -2.8110 O   0  0  0  0  0  0  0  0  0  0  0  0
   -7.6010  -43.2730   -5.0530 O   0  0  0  0  0  1  0  0  0  0  0  0
   -7.9450  -40.7420   -5.0700 O   0  0  0  0  0  0  0  0  0  0  0  0
   -9.0190  -40.0930   -4.4110 C   0  0  0  0  0  0  0  0  0  0  0  0
   -9.0040  -38.5720   -4.5850 C   0  0  1  0  0  0  0  0  0  0  0  0
   -9.5360  -37.9370   -3.3970 O   0  0  0  0  0  0  0  0  0  0  0  0
   -8.7070  -36.7840   -3.1440 C   0  0  1  0  0  0  0  0  0  0  0  0
   -8.7970  -36.4470   -1.7380 N   0  0  0  0  0  0  0  0  0  0  0  0
   -8.7030  -37.3140   -0.6800 C   0  0  0  0  0  0  0  0  0  0  0  0
   -8.7720  -36.6930    0.4810 N   0  0  0  0  0  0  0  0  0  0  0  0
   -8.9500  -35.3630    0.1500 C   0  0  0  0  0  0  0  0  0  0  0  0
   -9.0930  -34.2060    0.9340 C   0  0  0  0  0  0  0  0  0  0  0  0
   -9.0850  -34.2230    2.3260 N   0  0  0  0  0  0  0  0  0  0  0  0
   -9.2140  -33.0110    0.3120 N   0  0  0  0  0  0  0  0  0  0  0  0
   -9.2210  -32.9960   -1.0400 C   0  0  0  0  0  0  0  0  0  0  0  0
   -9.1070  -34.0330   -1.8910 N   0  0  0  0  0  0  0  0  0  0  0  0
   -8.9650  -35.1910   -1.2240 C   0  0  0  0  0  0  0  0  0  0  0  0
   -7.3040  -37.2000   -3.5730 C   0  0  2  0  0  0  0  0  0  0  0  0
   -6.4280  -36.1110   -3.8520 O   0  0  0  0  0  0  0  0  0  0  0  0
   -7.5970  -38.0080   -4.8230 C   0  0  2  0  0  0  0  0  0  0  0  0
   -7.5970  -37.1140   -5.9520 O   0  0  0  0  0  0  0  0  0  0  0  0
   -4.6280  -42.6820   -4.8190 C   0  0  0  0  0  0  0  0  0  0  0  0
   -3.4310  -42.1700   -5.0100 N   0  0  0  0  0  0  0  0  0  0  0  0
   -0.6316  -40.9415   -4.7863 H   0  0  0  0  0  0  0  0  0  0  0  0
   -1.5159  -41.4688   -6.2583 H   0  0  0  0  0  0  0  0  0  0  0  0
   -0.6196  -39.9121   -6.2583 H   0  0  0  0  0  0  0  0  0  0  0  0
   -2.2434  -39.3978   -4.1962 H   0  0  0  0  0  0  0  0  0  0  0  0
   -2.7579  -39.1452   -5.9204 H   0  0  0  0  0  0  0  0  0  0  0  0
   -5.3766  -39.5087   -4.6497 H   0  0  0  0  0  0  0  0  0  0  0  0
   -9.9644  -40.4819   -4.8173 H   0  0  0  0  0  0  0  0  0  0  0  0
   -8.9147  -40.2996   -3.3356 H   0  0  0  0  0  0  0  0  0  0  0  0
   -9.6187  -38.3585   -5.4719 H   0  0  0  0  0  0  0  0  0  0  0  0
   -9.0111  -35.8824   -3.6959 H   0  0  0  0  0  0  0  0  0  0  0  0
   -8.5838  -38.4022   -0.7874 H   0  0  0  0  0  0  0  0  0  0  0  0
   -8.9900  -35.1630    2.6980 H   0  0  0  0  0  0  0  0  0  0  0  0
   -8.4790  -33.5060    2.6990 H   0  0  0  0  0  0  0  0  0  0  0  0
   -9.3348  -32.0061   -1.5060 H   0  0  0  0  0  0  0  0  0  0  0  0
   -6.7684  -37.7418   -2.7796 H   0  0  0  0  0  0  0  0  0  0  0  0
   -5.9750  -36.3730   -4.6860 H   0  0  0  0  0  0  0  0  0  0  0  0
   -6.8639  -38.8039   -5.0206 H   0  0  0  0  0  0  0  0  0  0  0  0
   -6.6750  -36.7170   -5.9240 H   0  0  0  0  0  0  0  0  0  0  0  0
   -4.8287  -43.7635   -4.8105 H   0  0  0  0  0  0  0  0  0  0  0  0
  1  2  1  0
  2  3  1  0
  3  4  2  0
  4  5  1  0
  5  6  1  0
  6  7  2  0
  6  8  1  6
  6  9  1  0
  9 10  1  0
 10 11  1  0
 11 12  1  0
 12 13  1  0
 13 14  1  0
 14 15  1  0
 15 16  2  0
 16 17  1  0
 17 18  2  0
 18 19  1  0
 18 20  1  0
 20 21  2  0
 21 22  1  0
 22 23  2  0
 13 24  1  0
 24 25  1  0
 24 26  1  0
 26 27  1  0
  5 28  1  0
 28 29  2  0
 29  3  1  0
 26 11  1  0
 23 14  1  0
 23 17  1  0
  1 30  1  0
  1 31  1  0
  1 32  1  0
  2 33  1  0
  2 34  1  0
  4 35  1  0
 10 36  1  0
 10 37  1  0
 11 38  1  6
 13 39  1  6
 15 40  1  0
 19 41  1  0
 19 42  1  0
 21 43  1  0
 24 44  1  1
 25 45  1  0
 26 46  1  6
 27 47  1  0
 28 48  1  0
M  CHG  1   8  -1
M  END
>  <meeko>  (8) 
{"is_sidechain": [true], "free_energy": 0.0, "intermolecular_energy": 0.0, "internal_energy": -12.77, "cluster_size": 1, "cluster_id": 8, "rank_in_cluster": 1}

$$$$

     RDKit          3D

 48 51  0  0  0  0  0  0  0  0999 V2000
   -1.2230  -40.6010   -5.6490 C   0  0  0  0  0  0  0  0  0  0  0  0
   -2.4700  -39.8830   -5.1570 C   0  0  0  0  0  0  0  0  0  0  0  0
   -3.6150  -40.8100   -4.9700 C   0  0  0  0  0  0  0  0  0  0  0  0
   -4.9440  -40.5110   -4.7790 C   0  0  0  0  0  0  0  0  0  0  0  0
   -5.6150  -41.7230   -4.6610 N   0  0  0  0  0  0  0  0  0  0  0  0
   -7.2900  -42.0010   -4.3620 P   0  0  2  0  0  5  0  0  0  0  0  0
   -7.4520  -41.7990   -2.8820 O   0  0  0  0  0  0  0  0  0  0  0  0
   -7.5930  -43.2850   -5.0990 O   0  0  0  0  0  1  0  0  0  0  0  0
   -7.9420  -40.7560   -5.1750 O   0  0  0  0  0  0  0  0  0  0  0  0
   -9.0660  -40.1300   -4.5790 C   0  0  0  0  0  0  0  0  0  0  0  0
   -9.0320  -38.6030   -4.6820 C   0  0  1  0  0  0  0  0  0  0  0  0
   -9.5670  -38.0170   -3.4710 O   0  0  0  0  0  0  0  0  0  0  0  0
   -8.7290  -36.8870   -3.1570 C   0  0  1  0  0  0  0  0  0  0  0  0
   -8.8280  -36.6140   -1.7380 N   0  0  0  0  0  0  0  0  0  0  0  0
   -9.3460  -35.4860   -1.1550 C   0  0  0  0  0  0  0  0  0  0  0  0
   -9.3430  -35.5590    0.1610 N   0  0  0  0  0  0  0  0  0  0  0  0
   -8.7670  -36.7850    0.4370 C   0  0  0  0  0  0  0  0  0  0  0  0
   -8.4840  -37.4450    1.6440 C   0  0  0  0  0  0  0  0  0  0  0  0
   -8.7650  -36.9000    2.8940 N   0  0  0  0  0  0  0  0  0  0  0  0
   -7.9410  -38.6830    1.5960 N   0  0  0  0  0  0  0  0  0  0  0  0
   -7.6700  -39.2110    0.3800 C   0  0  0  0  0  0  0  0  0  0  0  0
   -7.8820  -38.6710   -0.8350 N   0  0  0  0  0  0  0  0  0  0  0  0
   -8.4430  -37.4550   -0.7310 C   0  0  0  0  0  0  0  0  0  0  0  0
   -7.3260  -37.2990   -3.5930 C   0  0  2  0  0  0  0  0  0  0  0  0
   -6.4350  -36.2080   -3.8130 O   0  0  0  0  0  0  0  0  0  0  0  0
   -7.6160  -38.0450   -4.8820 C   0  0  2  0  0  0  0  0  0  0  0  0
   -7.5970  -37.1000   -5.9680 O   0  0  0  0  0  0  0  0  0  0  0  0
   -4.6270  -42.6810   -4.8010 C   0  0  0  0  0  0  0  0  0  0  0  0
   -3.4270  -42.1690   -4.9750 N   0  0  0  0  0  0  0  0  0  0  0  0
   -0.6316  -40.9415   -4.7863 H   0  0  0  0  0  0  0  0  0  0  0  0
   -1.5159  -41.4688   -6.2583 H   0  0  0  0  0  0  0  0  0  0  0  0
   -0.6196  -39.9121   -6.2583 H   0  0  0  0  0  0  0  0  0  0  0  0
   -2.2443  -39.4004   -4.1946 H   0  0  0  0  0  0  0  0  0  0  0  0
   -2.7560  -39.1430   -5.9190 H   0  0  0  0  0  0  0  0  0  0  0  0
   -5.3899  -39.5067   -4.7292 H   0  0  0  0  0  0  0  0  0  0  0  0
   -9.9751  -40.4939   -5.0800 H   0  0  0  0  0  0  0  0  0  0  0  0
   -9.0529  -40.3855   -3.5092 H   0  0  0  0  0  0  0  0  0  0  0  0
   -9.6366  -38.3419   -5.5631 H   0  0  0  0  0  0  0  0  0  0  0  0
   -9.0188  -35.9573   -3.6685 H   0  0  0  0  0  0  0  0  0  0  0  0
   -9.7208  -34.6201   -1.7205 H   0  0  0  0  0  0  0  0  0  0  0  0
   -8.9150  -35.8970    2.8510 H   0  0  0  0  0  0  0  0  0  0  0  0
   -9.4440  -37.4570    3.3930 H   0  0  0  0  0  0  0  0  0  0  0  0
   -7.2169  -40.2133    0.3847 H   0  0  0  0  0  0  0  0  0  0  0  0
   -6.8039  -37.8834   -2.8210 H   0  0  0  0  0  0  0  0  0  0  0  0
   -5.9760  -36.4380   -4.6540 H   0  0  0  0  0  0  0  0  0  0  0  0
   -6.8895  -38.8388   -5.1102 H   0  0  0  0  0  0  0  0  0  0  0  0
   -6.6690  -36.7180   -5.9170 H   0  0  0  0  0  0  0  0  0  0  0  0
   -4.8245  -43.7627   -4.7700 H   0  0  0  0  0  0  0  0  0  0  0  0
  1  2  1  0
  2  3  1  0
  3  4  2  0
  4  5  1  0
  5  6  1  0
  6  7  2  0
  6  8  1  6
  6  9  1  0
  9 10  1  0
 10 11  1  0
 11 12  1  0
 12 13  1  0
 13 14  1  0
 14 15  1  0
 15 16  2  0
 16 17  1  0
 17 18  2  0
 18 19  1  0
 18 20  1  0
 20 21  2  0
 21 22  1  0
 22 23  2  0
 13 24  1  0
 24 25  1  0
 24 26  1  0
 26 27  1  0
  5 28  1  0
 28 29  2  0
 29  3  1  0
 26 11  1  0
 23 14  1  0
 23 17  1  0
  1 30  1  0
  1 31  1  0
  1 32  1  0
  2 33  1  0
  2 34  1  0
  4 35  1  0
 10 36  1  0
 10 37  1  0
 11 38  1  6
 13 39  1  6
 15 40  1  0
 19 41  1  0
 19 42  1  0
 21 43  1  0
 24 44  1  1
 25 45  1  0
 26 46  1  6
 27 47  1  0
 28 48  1  0
M  CHG  1   8  -1
M  END
>  <meeko>  (9) 
{"is_sidechain": [true], "free_energy": 0.0, "intermolecular_energy": 0.0, "internal_energy": -12.74, "cluster_size": 1, "cluster_id": 9, "rank_in_cluster": 1}

$$$$

     RDKit          3D

 48 51  0  0  0  0  0  0  0  0999 V2000
   -1.2230  -40.6010   -5.6490 C   0  0  0  0  0  0  0  0  0  0  0  0
   -2.4700  -39.8830   -5.1570 C   0  0  0  0  0  0  0  0  0  0  0  0
   -3.6170  -40.8090   -4.9750 C   0  0  0  0  0  0  0  0  0  0  0  0
   -4.7810  -40.6120   -4.2710 C   0  0  0  0  0  0  0  0  0  0  0  0
   -5.5350  -41.7720   -4.4080 N   0  0  0  0  0  0  0  0  0  0  0  0
   -7.0680  -42.1470   -3.7140 P   0  0  2  0  0  5  0  0  0  0  0  0
   -6.7450  -42.7690   -2.3860 O   0  0  0  0  0  0  0  0  0  0  0  0
   -7.8250  -42.8310   -4.8300 O   0  0  0  0  0  1  0  0  0  0  0  0
   -7.6670  -40.6520   -3.5050 O   0  0  0  0  0  0  0  0  0  0  0  0
   -8.7450  -40.2790   -4.3480 C   0  0  0  0  0  0  0  0  0  0  0  0
   -8.8570  -38.7660   -4.5510 C   0  0  1  0  0  0  0  0  0  0  0  0
   -9.4240  -38.1530   -3.3670 O   0  0  0  0  0  0  0  0  0  0  0  0
   -8.6910  -36.9310   -3.1470 C   0  0  1  0  0  0  0  0  0  0  0  0
   -8.7910  -36.5750   -1.7470 N   0  0  0  0  0  0  0  0  0  0  0  0
   -8.7180  -37.4300   -0.6770 C   0  0  0  0  0  0  0  0  0  0  0  0
   -8.7920  -36.7930    0.4750 N   0  0  0  0  0  0  0  0  0  0  0  0
   -8.9490  -35.4650    0.1260 C   0  0  0  0  0  0  0  0  0  0  0  0
   -9.0840  -34.2960    0.8930 C   0  0  0  0  0  0  0  0  0  0  0  0
   -9.0910  -34.2960    2.2850 N   0  0  0  0  0  0  0  0  0  0  0  0
   -9.1840  -33.1080    0.2550 N   0  0  0  0  0  0  0  0  0  0  0  0
   -9.1770  -33.1100   -1.0970 C   0  0  0  0  0  0  0  0  0  0  0  0
   -9.0670  -34.1600   -1.9340 N   0  0  0  0  0  0  0  0  0  0  0  0
   -8.9480  -35.3100   -1.2510 C   0  0  0  0  0  0  0  0  0  0  0  0
   -7.2640  -37.2390   -3.5880 C   0  0  2  0  0  0  0  0  0  0  0  0
   -6.4830  -36.0870   -3.8990 O   0  0  0  0  0  0  0  0  0  0  0  0
   -7.5040  -38.0930   -4.8190 C   0  0  2  0  0  0  0  0  0  0  0  0
   -7.5920  -37.2240   -5.9640 O   0  0  0  0  0  0  0  0  0  0  0  0
   -4.7620  -42.5940   -5.2070 C   0  0  0  0  0  0  0  0  0  0  0  0
   -3.6120  -42.0550   -5.5520 N   0  0  0  0  0  0  0  0  0  0  0  0
   -0.6316  -40.9415   -4.7863 H   0  0  0  0  0  0  0  0  0  0  0  0
   -1.5159  -41.4688   -6.2583 H   0  0  0  0  0  0  0  0  0  0  0  0
   -0.6196  -39.9121   -6.2583 H   0  0  0  0  0  0  0  0  0  0  0  0
   -2.2454  -39.4038   -4.1927 H   0  0  0  0  0  0  0  0  0  0  0  0
   -2.7536  -39.1404   -5.9173 H   0  0  0  0  0  0  0  0  0  0  0  0
   -5.0619  -39.7100   -3.7076 H   0  0  0  0  0  0  0  0  0  0  0  0
   -8.6013  -40.7537   -5.3299 H   0  0  0  0  0  0  0  0  0  0  0  0
   -9.6723  -40.6125   -3.8592 H   0  0  0  0  0  0  0  0  0  0  0  0
   -9.4981  -38.6217   -5.4331 H   0  0  0  0  0  0  0  0  0  0  0  0
   -9.0756  -36.0683   -3.7107 H   0  0  0  0  0  0  0  0  0  0  0  0
   -8.6102  -38.5208   -0.7693 H   0  0  0  0  0  0  0  0  0  0  0  0
   -9.1010  -35.2350    2.6700 H   0  0  0  0  0  0  0  0  0  0  0  0
   -8.4150  -33.6430    2.6560 H   0  0  0  0  0  0  0  0  0  0  0  0
   -9.2738  -32.1248   -1.5767 H   0  0  0  0  0  0  0  0  0  0  0  0
   -6.6765  -37.7197   -2.7919 H   0  0  0  0  0  0  0  0  0  0  0  0
   -6.0300  -36.3230   -4.7410 H   0  0  0  0  0  0  0  0  0  0  0  0
   -6.7101  -38.8295   -5.0121 H   0  0  0  0  0  0  0  0  0  0  0  0
   -6.7070  -36.7510   -5.9560 H   0  0  0  0  0  0  0  0  0  0  0  0
   -5.0771  -43.5994   -5.5231 H   0  0  0  0  0  0  0  0  0  0  0  0
  1  2  1  0
  2  3  1  0
  3  4  2  0
  4  5  1  0
  5  6  1  0
  6  7  2  0
  6  8  1  6
  6  9  1  0
  9 10  1  0
 10 11  1  0
 11 12  1  0
 12 13  1  0
 13 14  1  0
 14 15  1  0
 15 16  2  0
 16 17  1  0
 17 18  2  0
 18 19  1  0
 18 20  1  0
 20 21  2  0
 21 22  1  0
 22 23  2  0
 13 24  1  0
 24 25  1  0
 24 26  1  0
 26 27  1  0
  5 28  1  0
 28 29  2  0
 29  3  1  0
 26 11  1  0
 23 14  1  0
 23 17  1  0
  1 30  1  0
  1 31  1  0
  1 32  1  0
  2 33  1  0
  2 34  1  0
  4 35  1  0
 10 36  1  0
 10 37  1  0
 11 38  1  6
 13 39  1  6
 15 40  1  0
 19 41  1  0
 19 42  1  0
 21 43  1  0
 24 44  1  1
 25 45  1  0
 26 46  1  6
 27 47  1  0
 28 48  1  0
M  CHG  1   8  -1
M  END
>  <meeko>  (10) 
{"is_sidechain": [true], "free_energy": 0.0, "intermolecular_energy": 0.0, "internal_energy": -12.61, "cluster_size": 1, "cluster_id": 10, "rank_in_cluster": 1}

$$$$

     RDKit          3D

 48 51  0  0  0  0  0  0  0  0999 V2000
   -1.2230  -40.6010   -5.6490 C   0  0  0  0  0  0  0  0  0  0  0  0
   -2.4700  -39.8830   -5.1570 C   0  0  0  0  0  0  0  0  0  0  0  0
   -3.6170  -40.8090   -4.9770 C   0  0  0  0  0  0  0  0  0  0  0  0
   -4.9340  -40.5100   -4.7190 C   0  0  0  0  0  0  0  0  0  0  0  0
   -5.6140  -41.7200   -4.6410 N   0  0  0  0  0  0  0  0  0  0  0  0
   -7.2790  -41.9990   -4.2930 P   0  0  2  0  0  5  0  0  0  0  0  0
   -7.4000  -41.7900   -2.8110 O   0  0  0  0  0  0  0  0  0  0  0  0
   -7.6000  -43.2880   -5.0150 O   0  0  0  0  0  1  0  0  0  0  0  0
   -7.9560  -40.7600   -5.0950 O   0  0  0  0  0  0  0  0  0  0  0  0
   -9.0420  -40.1100   -4.4550 C   0  0  0  0  0  0  0  0  0  0  0  0
   -9.0170  -38.5880   -4.6180 C   0  0  1  0  0  0  0  0  0  0  0  0
   -9.5490  -37.9580   -3.4270 O   0  0  0  0  0  0  0  0  0  0  0  0
   -8.7140  -36.8120   -3.1630 C   0  0  1  0  0  0  0  0  0  0  0  0
   -8.8070  -36.4840   -1.7550 N   0  0  0  0  0  0  0  0  0  0  0  0
   -8.7260  -37.3600   -0.7030 C   0  0  0  0  0  0  0  0  0  0  0  0
   -8.7950  -36.7470    0.4620 N   0  0  0  0  0  0  0  0  0  0  0  0
   -8.9570  -35.4130    0.1410 C   0  0  0  0  0  0  0  0  0  0  0  0
   -9.0920  -34.2600    0.9320 C   0  0  0  0  0  0  0  0  0  0  0  0
   -9.0900  -34.2880    2.3240 N   0  0  0  0  0  0  0  0  0  0  0  0
   -9.1980  -33.0600    0.3180 N   0  0  0  0  0  0  0  0  0  0  0  0
   -9.1990  -33.0350   -1.0340 C   0  0  0  0  0  0  0  0  0  0  0  0
   -9.0910  -34.0670   -1.8920 N   0  0  0  0  0  0  0  0  0  0  0  0
   -8.9640  -35.2310   -1.2330 C   0  0  0  0  0  0  0  0  0  0  0  0
   -7.3120  -37.2340   -3.5900 C   0  0  2  0  0  0  0  0  0  0  0  0
   -6.4270  -36.1490   -3.8580 O   0  0  0  0  0  0  0  0  0  0  0  0
   -7.6050  -38.0320   -4.8470 C   0  0  2  0  0  0  0  0  0  0  0  0
   -7.5960  -37.1300   -5.9690 O   0  0  0  0  0  0  0  0  0  0  0  0
   -4.6420  -42.6770   -4.8720 C   0  0  0  0  0  0  0  0  0  0  0  0
   -3.4440  -42.1680   -5.0640 N   0  0  0  0  0  0  0  0  0  0  0  0
   -0.6316  -40.9415   -4.7863 H   0  0  0  0  0  0  0  0  0  0  0  0
   -1.5159  -41.4688   -6.2583 H   0  0  0  0  0  0  0  0  0  0  0  0
   -0.6196  -39.9121   -6.2583 H   0  0  0  0  0  0  0  0  0  0  0  0
   -2.2459  -39.4050   -4.1919 H   0  0  0  0  0  0  0  0  0  0  0  0
   -2.7528  -39.1391   -5.9164 H   0  0  0  0  0  0  0  0  0  0  0  0
   -5.3666  -39.5059   -4.5976 H   0  0  0  0  0  0  0  0  0  0  0  0
   -9.9799  -40.4919   -4.8846 H   0  0  0  0  0  0  0  0  0  0  0  0
   -8.9619  -40.3241   -3.3790 H   0  0  0  0  0  0  0  0  0  0  0  0
   -9.6276  -38.3638   -5.5051 H   0  0  0  0  0  0  0  0  0  0  0  0
   -9.0106  -35.9046   -3.7096 H   0  0  0  0  0  0  0  0  0  0  0  0
   -8.6161  -38.4484   -0.8180 H   0  0  0  0  0  0  0  0  0  0  0  0
   -9.0810  -35.2350    2.6890 H   0  0  0  0  0  0  0  0  0  0  0  0
   -8.4240  -33.6300    2.7040 H   0  0  0  0  0  0  0  0  0  0  0  0
   -9.3015  -32.0407   -1.4933 H   0  0  0  0  0  0  0  0  0  0  0  0
   -6.7833  -37.7846   -2.7980 H   0  0  0  0  0  0  0  0  0  0  0  0
   -5.9720  -36.4090   -4.6910 H   0  0  0  0  0  0  0  0  0  0  0  0
   -6.8761  -38.8311   -5.0475 H   0  0  0  0  0  0  0  0  0  0  0  0
   -6.6710  -36.7390   -5.9360 H   0  0  0  0  0  0  0  0  0  0  0  0
   -4.8502  -43.7569   -4.8931 H   0  0  0  0  0  0  0  0  0  0  0  0
  1  2  1  0
  2  3  1  0
  3  4  2  0
  4  5  1  0
  5  6  1  0
  6  7  2  0
  6  8  1  6
  6  9  1  0
  9 10  1  0
 10 11  1  0
 11 12  1  0
 12 13  1  0
 13 14  1  0
 14 15  1  0
 15 16  2  0
 16 17  1  0
 17 18  2  0
 18 19  1  0
 18 20  1  0
 20 21  2  0
 21 22  1  0
 22 23  2  0
 13 24  1  0
 24 25  1  0
 24 26  1  0
 26 27  1  0
  5 28  1  0
 28 29  2  0
 29  3  1  0
 26 11  1  0
 23 14  1  0
 23 17  1  0
  1 30  1  0
  1 31  1  0
  1 32  1  0
  2 33  1  0
  2 34  1  0
  4 35  1  0
 10 36  1  0
 10 37  1  0
 11 38  1  6
 13 39  1  6
 15 40  1  0
 19 41  1  0
 19 42  1  0
 21 43  1  0
 24 44  1  1
 25 45  1  0
 26 46  1  6
 27 47  1  0
 28 48  1  0
M  CHG  1   8  -1
M  END
>  <meeko>  (11) 
{"is_sidechain": [true], "free_energy": 0.0, "intermolecular_energy": 0.0, "internal_energy": -12.77, "cluster_size": 1, "cluster_id": 11, "rank_in_cluster": 1}

$$$$

     RDKit          3D

 48 51  0  0  0  0  0  0  0  0999 V2000
   -1.2230  -40.6010   -5.6490 C   0  0  0  0  0  0  0  0  0  0  0  0
   -2.4700  -39.8830   -5.1570 C   0  0  0  0  0  0  0  0  0  0  0  0
   -3.6150  -40.8100   -4.9690 C   0  0  0  0  0  0  0  0  0  0  0  0
   -4.9370  -40.5120   -4.7380 C   0  0  0  0  0  0  0  0  0  0  0  0
   -5.6110  -41.7240   -4.6380 N   0  0  0  0  0  0  0  0  0  0  0  0
   -7.2800  -42.0020   -4.3070 P   0  0  2  0  0  5  0  0  0  0  0  0
   -7.4120  -41.8090   -2.8230 O   0  0  0  0  0  0  0  0  0  0  0  0
   -7.5980  -43.2820   -5.0460 O   0  0  0  0  0  1  0  0  0  0  0  0
   -7.9480  -40.7520   -5.0990 O   0  0  0  0  0  0  0  0  0  0  0  0
   -9.0360  -40.1060   -4.4590 C   0  0  0  0  0  0  0  0  0  0  0  0
   -9.0060  -38.5830   -4.6090 C   0  0  1  0  0  0  0  0  0  0  0  0
   -9.5200  -37.9610   -3.4060 O   0  0  0  0  0  0  0  0  0  0  0  0
   -8.6770  -36.8210   -3.1420 C   0  0  1  0  0  0  0  0  0  0  0  0
   -8.7510  -36.5050   -1.7310 N   0  0  0  0  0  0  0  0  0  0  0  0
   -8.5830  -37.3780   -0.6860 C   0  0  0  0  0  0  0  0  0  0  0  0
   -8.6580  -36.7750    0.4840 N   0  0  0  0  0  0  0  0  0  0  0  0
   -8.9170  -35.4530    0.1750 C   0  0  0  0  0  0  0  0  0  0  0  0
   -9.1030  -34.3150    0.9760 C   0  0  0  0  0  0  0  0  0  0  0  0
   -9.0600  -34.3480    2.3670 N   0  0  0  0  0  0  0  0  0  0  0  0
   -9.3050  -33.1220    0.3730 N   0  0  0  0  0  0  0  0  0  0  0  0
   -9.3460  -33.0920   -0.9790 C   0  0  0  0  0  0  0  0  0  0  0  0
   -9.1960  -34.1110   -1.8450 N   0  0  0  0  0  0  0  0  0  0  0  0
   -8.9750  -35.2670   -1.1970 C   0  0  0  0  0  0  0  0  0  0  0  0
   -7.2830  -37.2450   -3.5900 C   0  0  2  0  0  0  0  0  0  0  0  0
   -6.3970  -36.1610   -3.8600 O   0  0  0  0  0  0  0  0  0  0  0  0
   -7.5950  -38.0300   -4.8510 C   0  0  2  0  0  0  0  0  0  0  0  0
   -7.5960  -37.1180   -5.9650 O   0  0  0  0  0  0  0  0  0  0  0  0
   -4.6320  -42.6810   -4.8310 C   0  0  0  0  0  0  0  0  0  0  0  0
   -3.4330  -42.1700   -5.0190 N   0  0  0  0  0  0  0  0  0  0  0  0
   -0.6316  -40.9415   -4.7863 H   0  0  0  0  0  0  0  0  0  0  0  0
   -1.5159  -41.4688   -6.2583 H   0  0  0  0  0  0  0  0  0  0  0  0
   -0.6196  -39.9121   -6.2583 H   0  0  0  0  0  0  0  0  0  0  0  0
   -2.2440  -39.3998   -4.1950 H   0  0  0  0  0  0  0  0  0  0  0  0
   -2.7564  -39.1436   -5.9195 H   0  0  0  0  0  0  0  0  0  0  0  0
   -5.3770  -39.5077   -4.6493 H   0  0  0  0  0  0  0  0  0  0  0  0
   -9.9724  -40.4820   -4.8969 H   0  0  0  0  0  0  0  0  0  0  0  0
   -8.9630  -40.3301   -3.3845 H   0  0  0  0  0  0  0  0  0  0  0  0
   -9.6265  -38.3493   -5.4867 H   0  0  0  0  0  0  0  0  0  0  0  0
   -8.9766  -35.9075   -3.6766 H   0  0  0  0  0  0  0  0  0  0  0  0
   -8.4061  -38.4566   -0.8101 H   0  0  0  0  0  0  0  0  0  0  0  0
   -8.9420  -35.2900    2.7260 H   0  0  0  0  0  0  0  0  0  0  0  0
   -8.4570  -33.6260    2.7330 H   0  0  0  0  0  0  0  0  0  0  0  0
   -9.5256  -32.1047   -1.4296 H   0  0  0  0  0  0  0  0  0  0  0  0
   -6.7472  -37.8051   -2.8095 H   0  0  0  0  0  0  0  0  0  0  0  0
   -5.9520  -36.4160   -4.7010 H   0  0  0  0  0  0  0  0  0  0  0  0
   -6.8718  -38.8299   -5.0683 H   0  0  0  0  0  0  0  0  0  0  0  0
   -6.6700  -36.7310   -5.9400 H   0  0  0  0  0  0  0  0  0  0  0  0
   -4.8346  -43.7622   -4.8278 H   0  0  0  0  0  0  0  0  0  0  0  0
  1  2  1  0
  2  3  1  0
  3  4  2  0
  4  5  1  0
  5  6  1  0
  6  7  2  0
  6  8  1  6
  6  9  1  0
  9 10  1  0
 10 11  1  0
 11 12  1  0
 12 13  1  0
 13 14  1  0
 14 15  1  0
 15 16  2  0
 16 17  1  0
 17 18  2  0
 18 19  1  0
 18 20  1  0
 20 21  2  0
 21 22  1  0
 22 23  2  0
 13 24  1  0
 24 25  1  0
 24 26  1  0
 26 27  1  0
  5 28  1  0
 28 29  2  0
 29  3  1  0
 26 11  1  0
 23 14  1  0
 23 17  1  0
  1 30  1  0
  1 31  1  0
  1 32  1  0
  2 33  1  0
  2 34  1  0
  4 35  1  0
 10 36  1  0
 10 37  1  0
 11 38  1  6
 13 39  1  6
 15 40  1  0
 19 41  1  0
 19 42  1  0
 21 43  1  0
 24 44  1  1
 25 45  1  0
 26 46  1  6
 27 47  1  0
 28 48  1  0
M  CHG  1   8  -1
M  END
>  <meeko>  (12) 
{"is_sidechain": [true], "free_energy": 0.0, "intermolecular_energy": 0.0, "internal_energy": -12.78, "cluster_size": 1, "cluster_id": 12, "rank_in_cluster": 1}

$$$$

     RDKit          3D

 48 51  0  0  0  0  0  0  0  0999 V2000
   -1.2230  -40.6010   -5.6490 C   0  0  0  0  0  0  0  0  0  0  0  0
   -2.4700  -39.8830   -5.1570 C   0  0  0  0  0  0  0  0  0  0  0  0
   -3.6150  -40.8110   -4.9670 C   0  0  0  0  0  0  0  0  0  0  0  0
   -4.9350  -40.5120   -4.7270 C   0  0  0  0  0  0  0  0  0  0  0  0
   -5.6090  -41.7240   -4.6300 N   0  0  0  0  0  0  0  0  0  0  0  0
   -7.2760  -42.0040   -4.2900 P   0  0  2  0  0  5  0  0  0  0  0  0
   -7.4000  -41.8180   -2.8050 O   0  0  0  0  0  0  0  0  0  0  0  0
   -7.5990  -43.2800   -5.0330 O   0  0  0  0  0  1  0  0  0  0  0  0
   -7.9480  -40.7500   -5.0730 O   0  0  0  0  0  0  0  0  0  0  0  0
   -9.0270  -40.1010   -4.4210 C   0  0  0  0  0  0  0  0  0  0  0  0
   -9.0090  -38.5800   -4.5930 C   0  0  1  0  0  0  0  0  0  0  0  0
   -9.5420  -37.9450   -3.4060 O   0  0  0  0  0  0  0  0  0  0  0  0
   -8.7130  -36.7930   -3.1510 C   0  0  1  0  0  0  0  0  0  0  0  0
   -8.8050  -36.4560   -1.7450 N   0  0  0  0  0  0  0  0  0  0  0  0
   -8.7150  -37.3240   -0.6870 C   0  0  0  0  0  0  0  0  0  0  0  0
   -8.7860  -36.7040    0.4740 N   0  0  0  0  0  0  0  0  0  0  0  0
   -8.9580  -35.3730    0.1440 C   0  0  0  0  0  0  0  0  0  0  0  0
   -9.0990  -34.2160    0.9280 C   0  0  0  0  0  0  0  0  0  0  0  0
   -9.0940  -34.2340    2.3200 N   0  0  0  0  0  0  0  0  0  0  0  0
   -9.2160  -33.0200    0.3060 N   0  0  0  0  0  0  0  0  0  0  0  0
   -9.2200  -33.0050   -1.0460 C   0  0  0  0  0  0  0  0  0  0  0  0
   -9.1070  -34.0420   -1.8970 N   0  0  0  0  0  0  0  0  0  0  0  0
   -8.9700  -35.2000   -1.2310 C   0  0  0  0  0  0  0  0  0  0  0  0
   -7.3100  -37.2100   -3.5780 C   0  0  2  0  0  0  0  0  0  0  0  0
   -6.4320  -36.1220   -3.8550 O   0  0  0  0  0  0  0  0  0  0  0  0
   -7.6010  -38.0170   -4.8290 C   0  0  2  0  0  0  0  0  0  0  0  0
   -7.5990  -37.1230   -5.9570 O   0  0  0  0  0  0  0  0  0  0  0  0
   -4.6310  -42.6810   -4.8320 C   0  0  0  0  0  0  0  0  0  0  0  0
   -3.4340  -42.1700   -5.0240 N   0  0  0  0  0  0  0  0  0  0  0  0
   -0.6316  -40.9415   -4.7863 H   0  0  0  0  0  0  0  0  0  0  0  0
   -1.5159  -41.4688   -6.2583 H   0  0  0  0  0  0  0  0  0  0  0  0
   -0.6196  -39.9121   -6.2583 H   0  0  0  0  0  0  0  0  0  0  0  0
   -2.2436  -39.3985   -4.1957 H   0  0  0  0  0  0  0  0  0  0  0  0
   -2.7573  -39.1447   -5.9201 H   0  0  0  0  0  0  0  0  0  0  0  0
   -5.3733  -39.5078   -4.6304 H   0  0  0  0  0  0  0  0  0  0  0  0
   -9.9696  -40.4885   -4.8350 H   0  0  0  0  0  0  0  0  0  0  0  0
   -8.9315  -40.3093   -3.3451 H   0  0  0  0  0  0  0  0  0  0  0  0
   -9.6221  -38.3654   -5.4807 H   0  0  0  0  0  0  0  0  0  0  0  0
   -9.0157  -35.8908   -3.7028 H   0  0  0  0  0  0  0  0  0  0  0  0
   -8.5971  -38.4123   -0.7949 H   0  0  0  0  0  0  0  0  0  0  0  0
   -8.9950  -35.1740    2.6910 H   0  0  0  0  0  0  0  0  0  0  0  0
   -8.4930  -33.5150    2.6950 H   0  0  0  0  0  0  0  0  0  0  0  0
   -9.3301  -32.0147   -1.5121 H   0  0  0  0  0  0  0  0  0  0  0  0
   -6.7768  -37.7527   -2.7836 H   0  0  0  0  0  0  0  0  0  0  0  0
   -5.9790  -36.3830   -4.6890 H   0  0  0  0  0  0  0  0  0  0  0  0
   -6.8678  -38.8130   -5.0262 H   0  0  0  0  0  0  0  0  0  0  0  0
   -6.6770  -36.7270   -5.9290 H   0  0  0  0  0  0  0  0  0  0  0  0
   -4.8339  -43.7621   -4.8321 H   0  0  0  0  0  0  0  0  0  0  0  0
  1  2  1  0
  2  3  1  0
  3  4  2  0
  4  5  1  0
  5  6  1  0
  6  7  2  0
  6  8  1  6
  6  9  1  0
  9 10  1  0
 10 11  1  0
 11 12  1  0
 12 13  1  0
 13 14  1  0
 14 15  1  0
 15 16  2  0
 16 17  1  0
 17 18  2  0
 18 19  1  0
 18 20  1  0
 20 21  2  0
 21 22  1  0
 22 23  2  0
 13 24  1  0
 24 25  1  0
 24 26  1  0
 26 27  1  0
  5 28  1  0
 28 29  2  0
 29  3  1  0
 26 11  1  0
 23 14  1  0
 23 17  1  0
  1 30  1  0
  1 31  1  0
  1 32  1  0
  2 33  1  0
  2 34  1  0
  4 35  1  0
 10 36  1  0
 10 37  1  0
 11 38  1  6
 13 39  1  6
 15 40  1  0
 19 41  1  0
 19 42  1  0
 21 43  1  0
 24 44  1  1
 25 45  1  0
 26 46  1  6
 27 47  1  0
 28 48  1  0
M  CHG  1   8  -1
M  END
>  <meeko>  (13) 
{"is_sidechain": [true], "free_energy": 0.0, "intermolecular_energy": 0.0, "internal_energy": -12.77, "cluster_size": 1, "cluster_id": 13, "rank_in_cluster": 1}

$$$$

     RDKit          3D

 48 51  0  0  0  0  0  0  0  0999 V2000
   -1.2230  -40.6010   -5.6490 C   0  0  0  0  0  0  0  0  0  0  0  0
   -2.4700  -39.8830   -5.1570 C   0  0  0  0  0  0  0  0  0  0  0  0
   -3.6140  -40.8110   -4.9660 C   0  0  0  0  0  0  0  0  0  0  0  0
   -4.9350  -40.5130   -4.7300 C   0  0  0  0  0  0  0  0  0  0  0  0
   -5.6090  -41.7250   -4.6280 N   0  0  0  0  0  0  0  0  0  0  0  0
   -7.2760  -42.0050   -4.2910 P   0  0  2  0  0  5  0  0  0  0  0  0
   -7.4020  -41.8230   -2.8060 O   0  0  0  0  0  0  0  0  0  0  0  0
   -7.5990  -43.2790   -5.0380 O   0  0  0  0  0  1  0  0  0  0  0  0
   -7.9460  -40.7490   -5.0720 O   0  0  0  0  0  0  0  0  0  0  0  0
   -9.0240  -40.0990   -4.4180 C   0  0  0  0  0  0  0  0  0  0  0  0
   -9.0060  -38.5780   -4.5890 C   0  0  1  0  0  0  0  0  0  0  0  0
   -9.5360  -37.9440   -3.4000 O   0  0  0  0  0  0  0  0  0  0  0  0
   -8.7060  -36.7930   -3.1450 C   0  0  1  0  0  0  0  0  0  0  0  0
   -8.7950  -36.4580   -1.7390 N   0  0  0  0  0  0  0  0  0  0  0  0
   -8.7000  -37.3270   -0.6820 C   0  0  0  0  0  0  0  0  0  0  0  0
   -8.7690  -36.7070    0.4800 N   0  0  0  0  0  0  0  0  0  0  0  0
   -8.9460  -35.3770    0.1520 C   0  0  0  0  0  0  0  0  0  0  0  0
   -9.0870  -34.2210    0.9370 C   0  0  0  0  0  0  0  0  0  0  0  0
   -9.0790  -34.2400    2.3290 N   0  0  0  0  0  0  0  0  0  0  0  0
   -9.2080  -33.0250    0.3170 N   0  0  0  0  0  0  0  0  0  0  0  0
   -9.2150  -33.0080   -1.0350 C   0  0  0  0  0  0  0  0  0  0  0  0
   -9.1020  -34.0440   -1.8880 N   0  0  0  0  0  0  0  0  0  0  0  0
   -8.9620  -35.2020   -1.2230 C   0  0  0  0  0  0  0  0  0  0  0  0
   -7.3040  -37.2110   -3.5750 C   0  0  2  0  0  0  0  0  0  0  0  0
   -6.4250  -36.1230   -3.8520 O   0  0  0  0  0  0  0  0  0  0  0  0
   -7.5980  -38.0160   -4.8270 C   0  0  2  0  0  0  0  0  0  0  0  0
   -7.5970  -37.1200   -5.9530 O   0  0  0  0  0  0  0  0  0  0  0  0
   -4.6290  -42.6820   -4.8230 C   0  0  0  0  0  0  0  0  0  0  0  0
   -3.4320  -42.1700   -5.0150 N   0  0  0  0  0  0  0  0  0  0  0  0
   -0.6316  -40.9415   -4.7863 H   0  0  0  0  0  0  0  0  0  0  0  0
   -1.5159  -41.4688   -6.2583 H   0  0  0  0  0  0  0  0  0  0  0  0
   -0.6196  -39.9121   -6.2583 H   0  0  0  0  0  0  0  0  0  0  0  0
   -2.2434  -39.3978   -4.1962 H   0  0  0  0  0  0  0  0  0  0  0  0
   -2.7579  -39.1452   -5.9204 H   0  0  0  0  0  0  0  0  0  0  0  0
   -5.3745  -39.5087   -4.6393 H   0  0  0  0  0  0  0  0  0  0  0  0
   -9.9674  -40.4858   -4.8308 H   0  0  0  0  0  0  0  0  0  0  0  0
   -8.9265  -40.3076   -3.3424 H   0  0  0  0  0  0  0  0  0  0  0  0
   -9.6209  -38.3620   -5.4751 H   0  0  0  0  0  0  0  0  0  0  0  0
   -9.0091  -35.8898   -3.6949 H   0  0  0  0  0  0  0  0  0  0  0  0
   -8.5801  -38.4150   -0.7909 H   0  0  0  0  0  0  0  0  0  0  0  0
   -9.0650  -35.1850    2.7000 H   0  0  0  0  0  0  0  0  0  0  0  0
   -8.4130  -33.5790    2.7020 H   0  0  0  0  0  0  0  0  0  0  0  0
   -9.3279  -32.0173   -1.4994 H   0  0  0  0  0  0  0  0  0  0  0  0
   -6.7701  -37.7555   -2.7823 H   0  0  0  0  0  0  0  0  0  0  0  0
   -5.9740  -36.3840   -4.6880 H   0  0  0  0  0  0  0  0  0  0  0  0
   -6.8662  -38.8125   -5.0272 H   0  0  0  0  0  0  0  0  0  0  0  0
   -6.6740  -36.7260   -5.9270 H   0  0  0  0  0  0  0  0  0  0  0  0
   -4.8304  -43.7634   -4.8180 H   0  0  0  0  0  0  0  0  0  0  0  0
  1  2  1  0
  2  3  1  0
  3  4  2  0
  4  5  1  0
  5  6  1  0
  6  7  2  0
  6  8  1  6
  6  9  1  0
  9 10  1  0
 10 11  1  0
 11 12  1  0
 12 13  1  0
 13 14  1  0
 14 15  1  0
 15 16  2  0
 16 17  1  0
 17 18  2  0
 18 19  1  0
 18 20  1  0
 20 21  2  0
 21 22  1  0
 22 23  2  0
 13 24  1  0
 24 25  1  0
 24 26  1  0
 26 27  1  0
  5 28  1  0
 28 29  2  0
 29  3  1  0
 26 11  1  0
 23 14  1  0
 23 17  1  0
  1 30  1  0
  1 31  1  0
  1 32  1  0
  2 33  1  0
  2 34  1  0
  4 35  1  0
 10 36  1  0
 10 37  1  0
 11 38  1  6
 13 39  1  6
 15 40  1  0
 19 41  1  0
 19 42  1  0
 21 43  1  0
 24 44  1  1
 25 45  1  0
 26 46  1  6
 27 47  1  0
 28 48  1  0
M  CHG  1   8  -1
M  END
>  <meeko>  (14) 
{"is_sidechain": [true], "free_energy": 0.0, "intermolecular_energy": 0.0, "internal_energy": -12.77, "cluster_size": 1, "cluster_id": 14, "rank_in_cluster": 1}

$$$$

     RDKit          3D

 48 51  0  0  0  0  0  0  0  0999 V2000
   -1.2230  -40.6010   -5.6490 C   0  0  0  0  0  0  0  0  0  0  0  0
   -2.4700  -39.8830   -5.1570 C   0  0  0  0  0  0  0  0  0  0  0  0
   -3.6150  -40.8110   -4.9670 C   0  0  0  0  0  0  0  0  0  0  0  0
   -4.9350  -40.5120   -4.7300 C   0  0  0  0  0  0  0  0  0  0  0  0
   -5.6100  -41.7240   -4.6310 N   0  0  0  0  0  0  0  0  0  0  0  0
   -7.2770  -42.0040   -4.2940 P   0  0  2  0  0  5  0  0  0  0  0  0
   -7.4000  -41.8300   -2.8070 O   0  0  0  0  0  0  0  0  0  0  0  0
   -7.6020  -43.2730   -5.0480 O   0  0  0  0  0  1  0  0  0  0  0  0
   -7.9460  -40.7420   -5.0660 O   0  0  0  0  0  0  0  0  0  0  0  0
   -9.0180  -40.0900   -4.4030 C   0  0  0  0  0  0  0  0  0  0  0  0
   -9.0030  -38.5700   -4.5820 C   0  0  1  0  0  0  0  0  0  0  0  0
   -9.5330  -37.9310   -3.3950 O   0  0  0  0  0  0  0  0  0  0  0  0
   -8.7050  -36.7770   -3.1470 C   0  0  1  0  0  0  0  0  0  0  0  0
   -8.7920  -36.4350   -1.7430 N   0  0  0  0  0  0  0  0  0  0  0  0
   -8.6820  -37.2970   -0.6820 C   0  0  0  0  0  0  0  0  0  0  0  0
   -8.7540  -36.6710    0.4770 N   0  0  0  0  0  0  0  0  0  0  0  0
   -8.9500  -35.3450    0.1420 C   0  0  0  0  0  0  0  0  0  0  0  0
   -9.1040  -34.1870    0.9210 C   0  0  0  0  0  0  0  0  0  0  0  0
   -9.0890  -34.1980    2.3130 N   0  0  0  0  0  0  0  0  0  0  0  0
   -9.2430  -32.9960    0.2950 N   0  0  0  0  0  0  0  0  0  0  0  0
   -9.2560  -32.9870   -1.0570 C   0  0  0  0  0  0  0  0  0  0  0  0
   -9.1320  -34.0270   -1.9040 N   0  0  0  0  0  0  0  0  0  0  0  0
   -8.9740  -35.1790   -1.2330 C   0  0  0  0  0  0  0  0  0  0  0  0
   -7.3020  -37.1940   -3.5770 C   0  0  2  0  0  0  0  0  0  0  0  0
   -6.4260  -36.1060   -3.8610 O   0  0  0  0  0  0  0  0  0  0  0  0
   -7.5960  -38.0070   -4.8250 C   0  0  2  0  0  0  0  0  0  0  0  0
   -7.5990  -37.1160   -5.9560 O   0  0  0  0  0  0  0  0  0  0  0  0
   -4.6310  -42.6810   -4.8300 C   0  0  0  0  0  0  0  0  0  0  0  0
   -3.4330  -42.1700   -5.0210 N   0  0  0  0  0  0  0  0  0  0  0  0
   -0.6316  -40.9415   -4.7863 H   0  0  0  0  0  0  0  0  0  0  0  0
   -1.5159  -41.4688   -6.2583 H   0  0  0  0  0  0  0  0  0  0  0  0
   -0.6196  -39.9121   -6.2583 H   0  0  0  0  0  0  0  0  0  0  0  0
   -2.2436  -39.3985   -4.1957 H   0  0  0  0  0  0  0  0  0  0  0  0
   -2.7573  -39.1447   -5.9201 H   0  0  0  0  0  0  0  0  0  0  0  0
   -5.3735  -39.5075   -4.6366 H   0  0  0  0  0  0  0  0  0  0  0  0
   -9.9655  -40.4798   -4.8035 H   0  0  0  0  0  0  0  0  0  0  0  0
   -8.9090  -40.2934   -3.3275 H   0  0  0  0  0  0  0  0  0  0  0  0
   -9.6193  -38.3591   -5.4684 H   0  0  0  0  0  0  0  0  0  0  0  0
   -9.0114  -35.8775   -3.7011 H   0  0  0  0  0  0  0  0  0  0  0  0
   -8.5492  -38.3840   -0.7854 H   0  0  0  0  0  0  0  0  0  0  0  0
   -9.0560  -35.1410    2.6900 H   0  0  0  0  0  0  0  0  0  0  0  0
   -8.4340  -33.5230    2.6800 H   0  0  0  0  0  0  0  0  0  0  0  0
   -9.3848  -32.0008   -1.5270 H   0  0  0  0  0  0  0  0  0  0  0  0
   -6.7657  -37.7328   -2.7820 H   0  0  0  0  0  0  0  0  0  0  0  0
   -5.9760  -36.3700   -4.6960 H   0  0  0  0  0  0  0  0  0  0  0  0
   -6.8629  -38.8031   -5.0220 H   0  0  0  0  0  0  0  0  0  0  0  0
   -6.6770  -36.7180   -5.9310 H   0  0  0  0  0  0  0  0  0  0  0  0
   -4.8337  -43.7622   -4.8287 H   0  0  0  0  0  0  0  0  0  0  0  0
  1  2  1  0
  2  3  1  0
  3  4  2  0
  4  5  1  0
  5  6  1  0
  6  7  2  0
  6  8  1  6
  6  9  1  0
  9 10  1  0
 10 11  1  0
 11 12  1  0
 12 13  1  0
 13 14  1  0
 14 15  1  0
 15 16  2  0
 16 17  1  0
 17 18  2  0
 18 19  1  0
 18 20  1  0
 20 21  2  0
 21 22  1  0
 22 23  2  0
 13 24  1  0
 24 25  1  0
 24 26  1  0
 26 27  1  0
  5 28  1  0
 28 29  2  0
 29  3  1  0
 26 11  1  0
 23 14  1  0
 23 17  1  0
  1 30  1  0
  1 31  1  0
  1 32  1  0
  2 33  1  0
  2 34  1  0
  4 35  1  0
 10 36  1  0
 10 37  1  0
 11 38  1  6
 13 39  1  6
 15 40  1  0
 19 41  1  0
 19 42  1  0
 21 43  1  0
 24 44  1  1
 25 45  1  0
 26 46  1  6
 27 47  1  0
 28 48  1  0
M  CHG  1   8  -1
M  END
>  <meeko>  (15) 
{"is_sidechain": [true], "free_energy": 0.0, "intermolecular_energy": 0.0, "internal_energy": -12.76, "cluster_size": 1, "cluster_id": 15, "rank_in_cluster": 1}

$$$$

     RDKit          3D

 48 51  0  0  0  0  0  0  0  0999 V2000
   -1.2230  -40.6010   -5.6490 C   0  0  0  0  0  0  0  0  0  0  0  0
   -2.4700  -39.8830   -5.1570 C   0  0  0  0  0  0  0  0  0  0  0  0
   -3.6150  -40.8100   -4.9690 C   0  0  0  0  0  0  0  0  0  0  0  0
   -4.9390  -40.5110   -4.7520 C   0  0  0  0  0  0  0  0  0  0  0  0
   -5.6130  -41.7240   -4.6450 N   0  0  0  0  0  0  0  0  0  0  0  0
   -7.2840  -42.0020   -4.3250 P   0  0  2  0  0  5  0  0  0  0  0  0
   -7.4220  -41.8230   -2.8400 O   0  0  0  0  0  0  0  0  0  0  0  0
   -7.6010  -43.2730   -5.0780 O   0  0  0  0  0  1  0  0  0  0  0  0
   -7.9450  -40.7420   -5.1080 O   0  0  0  0  0  0  0  0  0  0  0  0
   -9.0340  -40.1000   -4.4670 C   0  0  0  0  0  0  0  0  0  0  0  0
   -9.0130  -38.5770   -4.6220 C   0  0  1  0  0  0  0  0  0  0  0  0
   -9.5420  -37.9550   -3.4260 O   0  0  0  0  0  0  0  0  0  0  0  0
   -8.7100  -36.8080   -3.1580 C   0  0  1  0  0  0  0  0  0  0  0  0
   -8.7980  -36.4880   -1.7480 N   0  0  0  0  0  0  0  0  0  0  0  0
   -8.7040  -37.3690   -0.7010 C   0  0  0  0  0  0  0  0  0  0  0  0
   -8.7720  -36.7620    0.4680 N   0  0  0  0  0  0  0  0  0  0  0  0
   -8.9480  -35.4280    0.1540 C   0  0  0  0  0  0  0  0  0  0  0  0
   -9.0890  -34.2810    0.9510 C   0  0  0  0  0  0  0  0  0  0  0  0
   -9.0800  -34.3150    2.3430 N   0  0  0  0  0  0  0  0  0  0  0  0
   -9.2090  -33.0780    0.3450 N   0  0  0  0  0  0  0  0  0  0  0  0
   -9.2170  -33.0460   -1.0070 C   0  0  0  0  0  0  0  0  0  0  0  0
   -9.1040  -34.0730   -1.8710 N   0  0  0  0  0  0  0  0  0  0  0  0
   -8.9640  -35.2390   -1.2190 C   0  0  0  0  0  0  0  0  0  0  0  0
   -7.3080  -37.2240   -3.5920 C   0  0  2  0  0  0  0  0  0  0  0  0
   -6.4270  -36.1350   -3.8580 O   0  0  0  0  0  0  0  0  0  0  0  0
   -7.6040  -38.0160   -4.8530 C   0  0  2  0  0  0  0  0  0  0  0  0
   -7.6010  -37.1080   -5.9700 O   0  0  0  0  0  0  0  0  0  0  0  0
   -4.6300  -42.6810   -4.8200 C   0  0  0  0  0  0  0  0  0  0  0  0
   -3.4310  -42.1700   -5.0040 N   0  0  0  0  0  0  0  0  0  0  0  0
   -0.6316  -40.9415   -4.7863 H   0  0  0  0  0  0  0  0  0  0  0  0
   -1.5159  -41.4688   -6.2583 H   0  0  0  0  0  0  0  0  0  0  0  0
   -0.6196  -39.9121   -6.2583 H   0  0  0  0  0  0  0  0  0  0  0  0
   -2.2440  -39.3998   -4.1950 H   0  0  0  0  0  0  0  0  0  0  0  0
   -2.7564  -39.1436   -5.9195 H   0  0  0  0  0  0  0  0  0  0  0  0
   -5.3808  -39.5064   -4.6773 H   0  0  0  0  0  0  0  0  0  0  0  0
   -9.9697  -40.4826   -4.9007 H   0  0  0  0  0  0  0  0  0  0  0  0
   -8.9562  -40.3201   -3.3921 H   0  0  0  0  0  0  0  0  0  0  0  0
   -9.6271  -38.3498   -5.5059 H   0  0  0  0  0  0  0  0  0  0  0  0
   -9.0121  -35.8985   -3.6980 H   0  0  0  0  0  0  0  0  0  0  0  0
   -8.5856  -38.4559   -0.8222 H   0  0  0  0  0  0  0  0  0  0  0  0
   -8.9900  -35.2600    2.7040 H   0  0  0  0  0  0  0  0  0  0  0  0
   -8.4710  -33.6060    2.7250 H   0  0  0  0  0  0  0  0  0  0  0  0
   -9.3307  -32.0504   -1.4606 H   0  0  0  0  0  0  0  0  0  0  0  0
   -6.7749  -37.7772   -2.8048 H   0  0  0  0  0  0  0  0  0  0  0  0
   -5.9730  -36.3900   -4.6930 H   0  0  0  0  0  0  0  0  0  0  0  0
   -6.8739  -38.8122   -5.0607 H   0  0  0  0  0  0  0  0  0  0  0  0
   -6.6770  -36.7140   -5.9380 H   0  0  0  0  0  0  0  0  0  0  0  0
   -4.8304  -43.7625   -4.8067 H   0  0  0  0  0  0  0  0  0  0  0  0
  1  2  1  0
  2  3  1  0
  3  4  2  0
  4  5  1  0
  5  6  1  0
  6  7  2  0
  6  8  1  6
  6  9  1  0
  9 10  1  0
 10 11  1  0
 11 12  1  0
 12 13  1  0
 13 14  1  0
 14 15  1  0
 15 16  2  0
 16 17  1  0
 17 18  2  0
 18 19  1  0
 18 20  1  0
 20 21  2  0
 21 22  1  0
 22 23  2  0
 13 24  1  0
 24 25  1  0
 24 26  1  0
 26 27  1  0
  5 28  1  0
 28 29  2  0
 29  3  1  0
 26 11  1  0
 23 14  1  0
 23 17  1  0
  1 30  1  0
  1 31  1  0
  1 32  1  0
  2 33  1  0
  2 34  1  0
  4 35  1  0
 10 36  1  0
 10 37  1  0
 11 38  1  6
 13 39  1  6
 15 40  1  0
 19 41  1  0
 19 42  1  0
 21 43  1  0
 24 44  1  1
 25 45  1  0
 26 46  1  6
 27 47  1  0
 28 48  1  0
M  CHG  1   8  -1
M  END
>  <meeko>  (16) 
{"is_sidechain": [true], "free_energy": 0.0, "intermolecular_energy": 0.0, "internal_energy": -12.78, "cluster_size": 1, "cluster_id": 16, "rank_in_cluster": 1}

$$$$

     RDKit          3D

 48 51  0  0  0  0  0  0  0  0999 V2000
   -1.2230  -40.6010   -5.6490 C   0  0  0  0  0  0  0  0  0  0  0  0
   -2.4700  -39.8830   -5.1570 C   0  0  0  0  0  0  0  0  0  0  0  0
   -3.6360  -40.7960   -5.0440 C   0  0  0  0  0  0  0  0  0  0  0  0
   -4.9110  -40.5160   -4.6110 C   0  0  0  0  0  0  0  0  0  0  0  0
   -5.6330  -41.7020   -4.6960 N   0  0  0  0  0  0  0  0  0  0  0  0
   -7.2720  -41.9970   -4.2490 P   0  0  2  0  0  5  0  0  0  0  0  0
   -7.3250  -41.7070   -2.7770 O   0  0  0  0  0  0  0  0  0  0  0  0
   -7.5950  -43.3320   -4.8810 O   0  0  0  0  0  1  0  0  0  0  0  0
   -8.0180  -40.8210   -5.0830 O   0  0  0  0  0  0  0  0  0  0  0  0
   -9.0790  -40.1520   -4.4220 C   0  0  0  0  0  0  0  0  0  0  0  0
   -9.0360  -38.6320   -4.5950 C   0  0  1  0  0  0  0  0  0  0  0  0
   -9.5620  -37.9870   -3.4100 O   0  0  0  0  0  0  0  0  0  0  0  0
   -8.7150  -36.8480   -3.1530 C   0  0  1  0  0  0  0  0  0  0  0  0
   -8.8060  -36.5090   -1.7480 N   0  0  0  0  0  0  0  0  0  0  0  0
   -8.7220  -37.3760   -0.6890 C   0  0  0  0  0  0  0  0  0  0  0  0
   -8.7890  -36.7530    0.4710 N   0  0  0  0  0  0  0  0  0  0  0  0
   -8.9540  -35.4230    0.1390 C   0  0  0  0  0  0  0  0  0  0  0  0
   -9.0880  -34.2640    0.9210 C   0  0  0  0  0  0  0  0  0  0  0  0
   -9.0840  -34.2800    2.3130 N   0  0  0  0  0  0  0  0  0  0  0  0
   -9.1970  -33.0680    0.2980 N   0  0  0  0  0  0  0  0  0  0  0  0
   -9.1990  -33.0540   -1.0540 C   0  0  0  0  0  0  0  0  0  0  0  0
   -9.0930  -34.0930   -1.9040 N   0  0  0  0  0  0  0  0  0  0  0  0
   -8.9640  -35.2510   -1.2350 C   0  0  0  0  0  0  0  0  0  0  0  0
   -7.3180  -37.2890   -3.5750 C   0  0  2  0  0  0  0  0  0  0  0  0
   -6.4210  -36.2160   -3.8500 O   0  0  0  0  0  0  0  0  0  0  0  0
   -7.6180  -38.0930   -4.8270 C   0  0  2  0  0  0  0  0  0  0  0  0
   -7.5980  -37.1990   -5.9560 O   0  0  0  0  0  0  0  0  0  0  0  0
   -4.7280  -42.6220   -5.1920 C   0  0  0  0  0  0  0  0  0  0  0  0
   -3.5310  -42.1170   -5.3980 N   0  0  0  0  0  0  0  0  0  0  0  0
   -0.6316  -40.9415   -4.7863 H   0  0  0  0  0  0  0  0  0  0  0  0
   -1.5159  -41.4688   -6.2583 H   0  0  0  0  0  0  0  0  0  0  0  0
   -0.6196  -39.9121   -6.2583 H   0  0  0  0  0  0  0  0  0  0  0  0
   -2.2621  -39.4500   -4.1674 H   0  0  0  0  0  0  0  0  0  0  0  0
   -2.7219  -39.1031   -5.8907 H   0  0  0  0  0  0  0  0  0  0  0  0
   -5.2872  -39.5422   -4.2644 H   0  0  0  0  0  0  0  0  0  0  0  0
  -10.0321  -40.5229   -4.8271 H   0  0  0  0  0  0  0  0  0  0  0  0
   -8.9769  -40.3610   -3.3469 H   0  0  0  0  0  0  0  0  0  0  0  0
   -9.6432  -38.4079   -5.4844 H   0  0  0  0  0  0  0  0  0  0  0  0
   -9.0009  -35.9411   -3.7061 H   0  0  0  0  0  0  0  0  0  0  0  0
   -8.6115  -38.4653   -0.7950 H   0  0  0  0  0  0  0  0  0  0  0  0
   -9.8000  -33.6780    2.7070 H   0  0  0  0  0  0  0  0  0  0  0  0
   -9.0140  -35.2220    2.6700 H   0  0  0  0  0  0  0  0  0  0  0  0
   -9.3006  -32.0633   -1.5211 H   0  0  0  0  0  0  0  0  0  0  0  0
   -6.7968  -37.8400   -2.7782 H   0  0  0  0  0  0  0  0  0  0  0  0
   -5.9680  -36.4860   -4.6820 H   0  0  0  0  0  0  0  0  0  0  0  0
   -6.8975  -38.9012   -5.0213 H   0  0  0  0  0  0  0  0  0  0  0  0
   -6.6690  -36.8180   -5.9250 H   0  0  0  0  0  0  0  0  0  0  0  0
   -4.9837  -43.6726   -5.3944 H   0  0  0  0  0  0  0  0  0  0  0  0
  1  2  1  0
  2  3  1  0
  3  4  2  0
  4  5  1  0
  5  6  1  0
  6  7  2  0
  6  8  1  1
  6  9  1  0
  9 10  1  0
 10 11  1  0
 11 12  1  0
 12 13  1  0
 13 14  1  0
 14 15  1  0
 15 16  2  0
 16 17  1  0
 17 18  2  0
 18 19  1  0
 18 20  1  0
 20 21  2  0
 21 22  1  0
 22 23  2  0
 13 24  1  0
 24 25  1  0
 24 26  1  0
 26 27  1  0
  5 28  1  0
 28 29  2  0
 29  3  1  0
 26 11  1  0
 23 14  1  0
 23 17  1  0
  1 30  1  0
  1 31  1  0
  1 32  1  0
  2 33  1  0
  2 34  1  0
  4 35  1  0
 10 36  1  0
 10 37  1  0
 11 38  1  6
 13 39  1  6
 15 40  1  0
 19 41  1  0
 19 42  1  0
 21 43  1  0
 24 44  1  1
 25 45  1  0
 26 46  1  6
 27 47  1  0
 28 48  1  0
M  CHG  1   8  -1
M  END
>  <meeko>  (17) 
{"is_sidechain": [true], "free_energy": 0.0, "intermolecular_energy": 0.0, "internal_energy": -12.68, "cluster_size": 1, "cluster_id": 17, "rank_in_cluster": 1}

$$$$

     RDKit          3D

 48 51  0  0  0  0  0  0  0  0999 V2000
   -1.2230  -40.6010   -5.6490 C   0  0  0  0  0  0  0  0  0  0  0  0
   -2.4700  -39.8830   -5.1570 C   0  0  0  0  0  0  0  0  0  0  0  0
   -3.5860  -40.8230   -4.8780 C   0  0  0  0  0  0  0  0  0  0  0  0
   -4.9380  -40.5740   -4.8620 C   0  0  0  0  0  0  0  0  0  0  0  0
   -5.5640  -41.7760   -4.5530 N   0  0  0  0  0  0  0  0  0  0  0  0
   -7.2460  -42.0910   -4.3410 P   0  0  2  0  0  5  0  0  0  0  0  0
   -7.4650  -42.0130   -2.8570 O   0  0  0  0  0  0  0  0  0  0  0  0
   -7.5080  -43.3110   -5.1930 O   0  0  0  0  0  1  0  0  0  0  0  0
   -7.8810  -40.7870   -5.0730 O   0  0  0  0  0  0  0  0  0  0  0  0
   -8.9660  -40.1560   -4.4120 C   0  0  0  0  0  0  0  0  0  0  0  0
   -8.9780  -38.6360   -4.5880 C   0  0  1  0  0  0  0  0  0  0  0  0
   -9.5200  -38.0080   -3.4000 O   0  0  0  0  0  0  0  0  0  0  0  0
   -8.7120  -36.8400   -3.1490 C   0  0  1  0  0  0  0  0  0  0  0  0
   -8.8060  -36.5030   -1.7440 N   0  0  0  0  0  0  0  0  0  0  0  0
   -8.7210  -37.3710   -0.6860 C   0  0  0  0  0  0  0  0  0  0  0  0
   -8.7930  -36.7500    0.4750 N   0  0  0  0  0  0  0  0  0  0  0  0
   -8.9620  -35.4190    0.1440 C   0  0  0  0  0  0  0  0  0  0  0  0
   -9.1020  -34.2610    0.9270 C   0  0  0  0  0  0  0  0  0  0  0  0
   -9.1010  -34.2790    2.3190 N   0  0  0  0  0  0  0  0  0  0  0  0
   -9.2140  -33.0650    0.3050 N   0  0  0  0  0  0  0  0  0  0  0  0
   -9.2140  -33.0500   -1.0470 C   0  0  0  0  0  0  0  0  0  0  0  0
   -9.1020  -34.0880   -1.8980 N   0  0  0  0  0  0  0  0  0  0  0  0
   -8.9700  -35.2460   -1.2300 C   0  0  0  0  0  0  0  0  0  0  0  0
   -7.3020  -37.2320   -3.5790 C   0  0  2  0  0  0  0  0  0  0  0  0
   -6.4450  -36.1280   -3.8600 O   0  0  0  0  0  0  0  0  0  0  0  0
   -7.5810  -38.0470   -4.8280 C   0  0  2  0  0  0  0  0  0  0  0  0
   -7.5990  -37.1550   -5.9580 O   0  0  0  0  0  0  0  0  0  0  0  0
   -4.5270  -42.6800   -4.4140 C   0  0  0  0  0  0  0  0  0  0  0  0
   -3.3390  -42.1410   -4.5900 N   0  0  0  0  0  0  0  0  0  0  0  0
   -0.6316  -40.9415   -4.7863 H   0  0  0  0  0  0  0  0  0  0  0  0
   -1.5159  -41.4688   -6.2583 H   0  0  0  0  0  0  0  0  0  0  0  0
   -0.6196  -39.9121   -6.2583 H   0  0  0  0  0  0  0  0  0  0  0  0
   -2.2245  -39.3402   -4.2323 H   0  0  0  0  0  0  0  0  0  0  0  0
   -2.7984  -39.1951   -5.9501 H   0  0  0  0  0  0  0  0  0  0  0  0
   -5.4297  -39.6094   -5.0563 H   0  0  0  0  0  0  0  0  0  0  0  0
   -9.9052  -40.5620   -4.8159 H   0  0  0  0  0  0  0  0  0  0  0  0
   -8.8563  -40.3595   -3.3366 H   0  0  0  0  0  0  0  0  0  0  0  0
   -9.5974  -38.4353   -5.4746 H   0  0  0  0  0  0  0  0  0  0  0  0
   -9.0332  -35.9446   -3.7013 H   0  0  0  0  0  0  0  0  0  0  0  0
   -8.6060  -38.4597   -0.7933 H   0  0  0  0  0  0  0  0  0  0  0  0
   -9.0070  -35.2190    2.6920 H   0  0  0  0  0  0  0  0  0  0  0  0
   -8.4970  -33.5620    2.6950 H   0  0  0  0  0  0  0  0  0  0  0  0
   -9.3194  -32.0594   -1.5135 H   0  0  0  0  0  0  0  0  0  0  0  0
   -6.7568  -37.7634   -2.7851 H   0  0  0  0  0  0  0  0  0  0  0  0
   -5.9890  -36.3830   -4.6950 H   0  0  0  0  0  0  0  0  0  0  0  0
   -6.8333  -38.8294   -5.0251 H   0  0  0  0  0  0  0  0  0  0  0  0
   -6.6840  -36.7410   -5.9320 H   0  0  0  0  0  0  0  0  0  0  0  0
   -4.6796  -43.7439   -4.1796 H   0  0  0  0  0  0  0  0  0  0  0  0
  1  2  1  0
  2  3  1  0
  3  4  2  0
  4  5  1  0
  5  6  1  0
  6  7  2  0
  6  8  1  6
  6  9  1  0
  9 10  1  0
 10 11  1  0
 11 12  1  0
 12 13  1  0
 13 14  1  0
 14 15  1  0
 15 16  2  0
 16 17  1  0
 17 18  2  0
 18 19  1  0
 18 20  1  0
 20 21  2  0
 21 22  1  0
 22 23  2  0
 13 24  1  0
 24 25  1  0
 24 26  1  0
 26 27  1  0
  5 28  1  0
 28 29  2  0
 29  3  1  0
 26 11  1  0
 23 14  1  0
 23 17  1  0
  1 30  1  0
  1 31  1  0
  1 32  1  0
  2 33  1  0
  2 34  1  0
  4 35  1  0
 10 36  1  0
 10 37  1  0
 11 38  1  6
 13 39  1  6
 15 40  1  0
 19 41  1  0
 19 42  1  0
 21 43  1  0
 24 44  1  1
 25 45  1  0
 26 46  1  6
 27 47  1  0
 28 48  1  0
M  CHG  1   8  -1
M  END
>  <meeko>  (18) 
{"is_sidechain": [true], "free_energy": 0.0, "intermolecular_energy": 0.0, "internal_energy": -12.68, "cluster_size": 1, "cluster_id": 18, "rank_in_cluster": 1}

$$$$

     RDKit          3D

 48 51  0  0  0  0  0  0  0  0999 V2000
   -1.2230  -40.6010   -5.6490 C   0  0  0  0  0  0  0  0  0  0  0  0
   -2.4700  -39.8830   -5.1570 C   0  0  0  0  0  0  0  0  0  0  0  0
   -3.6150  -40.8100   -4.9700 C   0  0  0  0  0  0  0  0  0  0  0  0
   -4.9380  -40.5110   -4.7410 C   0  0  0  0  0  0  0  0  0  0  0  0
   -5.6120  -41.7230   -4.6410 N   0  0  0  0  0  0  0  0  0  0  0  0
   -7.2810  -42.0020   -4.3120 P   0  0  2  0  0  5  0  0  0  0  0  0
   -7.4120  -41.8250   -2.8260 O   0  0  0  0  0  0  0  0  0  0  0  0
   -7.6030  -43.2720   -5.0650 O   0  0  0  0  0  1  0  0  0  0  0  0
   -7.9460  -40.7410   -5.0900 O   0  0  0  0  0  0  0  0  0  0  0  0
   -9.0290  -40.0960   -4.4400 C   0  0  0  0  0  0  0  0  0  0  0  0
   -9.0090  -38.5740   -4.6000 C   0  0  1  0  0  0  0  0  0  0  0  0
   -9.5370  -37.9470   -3.4060 O   0  0  0  0  0  0  0  0  0  0  0  0
   -8.7050  -36.8000   -3.1430 C   0  0  1  0  0  0  0  0  0  0  0  0
   -8.7920  -36.4750   -1.7350 N   0  0  0  0  0  0  0  0  0  0  0  0
   -8.7060  -37.3530   -0.6850 C   0  0  0  0  0  0  0  0  0  0  0  0
   -8.7700  -36.7420    0.4820 N   0  0  0  0  0  0  0  0  0  0  0  0
   -8.9350  -35.4070    0.1640 C   0  0  0  0  0  0  0  0  0  0  0  0
   -9.0670  -34.2560    0.9580 C   0  0  0  0  0  0  0  0  0  0  0  0
   -9.0590  -34.2870    2.3500 N   0  0  0  0  0  0  0  0  0  0  0  0
   -9.1760  -33.0540    0.3480 N   0  0  0  0  0  0  0  0  0  0  0  0
   -9.1820  -33.0270   -1.0050 C   0  0  0  0  0  0  0  0  0  0  0  0
   -9.0780  -34.0570   -1.8650 N   0  0  0  0  0  0  0  0  0  0  0  0
   -8.9480  -35.2220   -1.2090 C   0  0  0  0  0  0  0  0  0  0  0  0
   -7.3030  -37.2170   -3.5780 C   0  0  2  0  0  0  0  0  0  0  0  0
   -6.4230  -36.1280   -3.8480 O   0  0  0  0  0  0  0  0  0  0  0  0
   -7.6000  -38.0130   -4.8350 C   0  0  2  0  0  0  0  0  0  0  0  0
   -7.5990  -37.1080   -5.9560 O   0  0  0  0  0  0  0  0  0  0  0  0
   -4.6320  -42.6800   -4.8300 C   0  0  0  0  0  0  0  0  0  0  0  0
   -3.4330  -42.1700   -5.0170 N   0  0  0  0  0  0  0  0  0  0  0  0
   -0.6316  -40.9415   -4.7863 H   0  0  0  0  0  0  0  0  0  0  0  0
   -1.5159  -41.4688   -6.2583 H   0  0  0  0  0  0  0  0  0  0  0  0
   -0.6196  -39.9121   -6.2583 H   0  0  0  0  0  0  0  0  0  0  0  0
   -2.2443  -39.4004   -4.1946 H   0  0  0  0  0  0  0  0  0  0  0  0
   -2.7560  -39.1430   -5.9190 H   0  0  0  0  0  0  0  0  0  0  0  0
   -5.3780  -39.5066   -4.6538 H   0  0  0  0  0  0  0  0  0  0  0  0
   -9.9691  -40.4796   -4.8632 H   0  0  0  0  0  0  0  0  0  0  0  0
   -8.9406  -40.3126   -3.3652 H   0  0  0  0  0  0  0  0  0  0  0  0
   -9.6247  -38.3508   -5.4838 H   0  0  0  0  0  0  0  0  0  0  0  0
   -9.0073  -35.8923   -3.6858 H   0  0  0  0  0  0  0  0  0  0  0  0
   -8.5963  -38.4412   -0.8026 H   0  0  0  0  0  0  0  0  0  0  0  0
   -8.9470  -35.2280    2.7130 H   0  0  0  0  0  0  0  0  0  0  0  0
   -8.4680  -33.5620    2.7300 H   0  0  0  0  0  0  0  0  0  0  0  0
   -9.2855  -32.0319   -1.4622 H   0  0  0  0  0  0  0  0  0  0  0  0
   -6.7683  -37.7678   -2.7902 H   0  0  0  0  0  0  0  0  0  0  0  0
   -5.9700  -36.3850   -4.6840 H   0  0  0  0  0  0  0  0  0  0  0  0
   -6.8698  -38.8095   -5.0409 H   0  0  0  0  0  0  0  0  0  0  0  0
   -6.6750  -36.7160   -5.9270 H   0  0  0  0  0  0  0  0  0  0  0  0
   -4.8344  -43.7612   -4.8246 H   0  0  0  0  0  0  0  0  0  0  0  0
  1  2  1  0
  2  3  1  0
  3  4  2  0
  4  5  1  0
  5  6  1  0
  6  7  2  0
  6  8  1  6
  6  9  1  0
  9 10  1  0
 10 11  1  0
 11 12  1  0
 12 13  1  0
 13 14  1  0
 14 15  1  0
 15 16  2  0
 16 17  1  0
 17 18  2  0
 18 19  1  0
 18 20  1  0
 20 21  2  0
 21 22  1  0
 22 23  2  0
 13 24  1  0
 24 25  1  0
 24 26  1  0
 26 27  1  0
  5 28  1  0
 28 29  2  0
 29  3  1  0
 26 11  1  0
 23 14  1  0
 23 17  1  0
  1 30  1  0
  1 31  1  0
  1 32  1  0
  2 33  1  0
  2 34  1  0
  4 35  1  0
 10 36  1  0
 10 37  1  0
 11 38  1  6
 13 39  1  6
 15 40  1  0
 19 41  1  0
 19 42  1  0
 21 43  1  0
 24 44  1  1
 25 45  1  0
 26 46  1  6
 27 47  1  0
 28 48  1  0
M  CHG  1   8  -1
M  END
>  <meeko>  (19) 
{"is_sidechain": [true], "free_energy": 0.0, "intermolecular_energy": 0.0, "internal_energy": -12.77, "cluster_size": 1, "cluster_id": 19, "rank_in_cluster": 1}

$$$$

     RDKit          3D

 48 51  0  0  0  0  0  0  0  0999 V2000
   -1.2230  -40.6010   -5.6490 C   0  0  0  0  0  0  0  0  0  0  0  0
   -2.4700  -39.8830   -5.1570 C   0  0  0  0  0  0  0  0  0  0  0  0
   -3.6150  -40.8110   -4.9680 C   0  0  0  0  0  0  0  0  0  0  0  0
   -4.9340  -40.5120   -4.7220 C   0  0  0  0  0  0  0  0  0  0  0  0
   -5.6090  -41.7240   -4.6270 N   0  0  0  0  0  0  0  0  0  0  0  0
   -7.2750  -42.0040   -4.2840 P   0  0  2  0  0  5  0  0  0  0  0  0
   -7.3940  -41.8240   -2.7970 O   0  0  0  0  0  0  0  0  0  0  0  0
   -7.6010  -43.2770   -5.0310 O   0  0  0  0  0  1  0  0  0  0  0  0
   -7.9480  -40.7470   -5.0590 O   0  0  0  0  0  0  0  0  0  0  0  0
   -9.0180  -40.0920   -4.3960 C   0  0  0  0  0  0  0  0  0  0  0  0
   -9.0040  -38.5730   -4.5810 C   0  0  1  0  0  0  0  0  0  0  0  0
   -9.5380  -37.9290   -3.3990 O   0  0  0  0  0  0  0  0  0  0  0  0
   -8.7120  -36.7740   -3.1520 C   0  0  1  0  0  0  0  0  0  0  0  0
   -8.8040  -36.4260   -1.7490 N   0  0  0  0  0  0  0  0  0  0  0  0
   -8.7150  -37.2860   -0.6850 C   0  0  0  0  0  0  0  0  0  0  0  0
   -8.7860  -36.6570    0.4710 N   0  0  0  0  0  0  0  0  0  0  0  0
   -8.9590  -35.3290    0.1310 C   0  0  0  0  0  0  0  0  0  0  0  0
   -9.1000  -34.1660    0.9060 C   0  0  0  0  0  0  0  0  0  0  0  0
   -9.0960  -34.1730    2.2980 N   0  0  0  0  0  0  0  0  0  0  0  0
   -9.2160  -32.9750    0.2750 N   0  0  0  0  0  0  0  0  0  0  0  0
   -9.2180  -32.9690   -1.0770 C   0  0  0  0  0  0  0  0  0  0  0  0
   -9.1050  -34.0130   -1.9200 N   0  0  0  0  0  0  0  0  0  0  0  0
   -8.9700  -35.1660   -1.2450 C   0  0  0  0  0  0  0  0  0  0  0  0
   -7.3070  -37.1920   -3.5760 C   0  0  2  0  0  0  0  0  0  0  0  0
   -6.4310  -36.1040   -3.8610 O   0  0  0  0  0  0  0  0  0  0  0  0
   -7.5960  -38.0090   -4.8210 C   0  0  2  0  0  0  0  0  0  0  0  0
   -7.5960  -37.1240   -5.9560 O   0  0  0  0  0  0  0  0  0  0  0  0
   -4.6320  -42.6810   -4.8380 C   0  0  0  0  0  0  0  0  0  0  0  0
   -3.4350  -42.1700   -5.0320 N   0  0  0  0  0  0  0  0  0  0  0  0
   -0.6316  -40.9415   -4.7863 H   0  0  0  0  0  0  0  0  0  0  0  0
   -1.5159  -41.4688   -6.2583 H   0  0  0  0  0  0  0  0  0  0  0  0
   -0.6196  -39.9121   -6.2583 H   0  0  0  0  0  0  0  0  0  0  0  0
   -2.2439  -39.3991   -4.1954 H   0  0  0  0  0  0  0  0  0  0  0  0
   -2.7569  -39.1441   -5.9197 H   0  0  0  0  0  0  0  0  0  0  0  0
   -5.3711  -39.5078   -4.6200 H   0  0  0  0  0  0  0  0  0  0  0  0
   -9.9665  -40.4835   -4.7923 H   0  0  0  0  0  0  0  0  0  0  0  0
   -8.9056  -40.2907   -3.3199 H   0  0  0  0  0  0  0  0  0  0  0  0
   -9.6178  -38.3673   -5.4703 H   0  0  0  0  0  0  0  0  0  0  0  0
   -9.0173  -35.8766   -3.7102 H   0  0  0  0  0  0  0  0  0  0  0  0
   -8.5979  -38.3752   -0.7846 H   0  0  0  0  0  0  0  0  0  0  0  0
   -9.0810  -35.1150    2.6770 H   0  0  0  0  0  0  0  0  0  0  0  0
   -8.4330  -33.5070    2.6670 H   0  0  0  0  0  0  0  0  0  0  0  0
   -9.3261  -31.9820   -1.5504 H   0  0  0  0  0  0  0  0  0  0  0  0
   -6.7730  -37.7279   -2.7775 H   0  0  0  0  0  0  0  0  0  0  0  0
   -5.9740  -36.3730   -4.6910 H   0  0  0  0  0  0  0  0  0  0  0  0
   -6.8608  -38.8047   -5.0117 H   0  0  0  0  0  0  0  0  0  0  0  0
   -6.6750  -36.7240   -5.9290 H   0  0  0  0  0  0  0  0  0  0  0  0
   -4.8358  -43.7619   -4.8431 H   0  0  0  0  0  0  0  0  0  0  0  0
  1  2  1  0
  2  3  1  0
  3  4  2  0
  4  5  1  0
  5  6  1  0
  6  7  2  0
  6  8  1  6
  6  9  1  0
  9 10  1  0
 10 11  1  0
 11 12  1  0
 12 13  1  0
 13 14  1  0
 14 15  1  0
 15 16  2  0
 16 17  1  0
 17 18  2  0
 18 19  1  0
 18 20  1  0
 20 21  2  0
 21 22  1  0
 22 23  2  0
 13 24  1  0
 24 25  1  0
 24 26  1  0
 26 27  1  0
  5 28  1  0
 28 29  2  0
 29  3  1  0
 26 11  1  0
 23 14  1  0
 23 17  1  0
  1 30  1  0
  1 31  1  0
  1 32  1  0
  2 33  1  0
  2 34  1  0
  4 35  1  0
 10 36  1  0
 10 37  1  0
 11 38  1  6
 13 39  1  6
 15 40  1  0
 19 41  1  0
 19 42  1  0
 21 43  1  0
 24 44  1  1
 25 45  1  0
 26 46  1  6
 27 47  1  0
 28 48  1  0
M  CHG  1   8  -1
M  END
>  <meeko>  (20) 
{"is_sidechain": [true], "free_energy": 0.0, "intermolecular_energy": 0.0, "internal_energy": -12.77, "cluster_size": 1, "cluster_id": 20, "rank_in_cluster": 1}

$$$$
